* NGSPICE file created from top.ext - technology: ihp-sg13g2

* Black-box entry subcircuit for sg13g2_decap_8 abstract view
.subckt sg13g2_decap_8 VDD VSS
.ends

* Black-box entry subcircuit for sg13g2_fill_2 abstract view
.subckt sg13g2_fill_2 VDD VSS
.ends

* Black-box entry subcircuit for sg13g2_xnor2_1 abstract view
.subckt sg13g2_xnor2_1 Y A B VDD VSS
.ends

* Black-box entry subcircuit for sg13g2_tiehi abstract view
.subckt sg13g2_tiehi VDD VSS L_HI
.ends

* Black-box entry subcircuit for sg13g2_nand2b_1 abstract view
.subckt sg13g2_nand2b_1 Y B A_N VDD VSS
.ends

* Black-box entry subcircuit for sg13g2_a21o_1 abstract view
.subckt sg13g2_a21o_1 A2 A1 B1 X VDD VSS
.ends

* Black-box entry subcircuit for sg13g2_fill_1 abstract view
.subckt sg13g2_fill_1 VDD VSS
.ends

* Black-box entry subcircuit for sg13g2_xor2_1 abstract view
.subckt sg13g2_xor2_1 B A X VDD VSS
.ends

* Black-box entry subcircuit for sg13g2_inv_1 abstract view
.subckt sg13g2_inv_1 VDD Y A VSS
.ends

* Black-box entry subcircuit for sg13g2_dfrbpq_1 abstract view
.subckt sg13g2_dfrbpq_1 RESET_B VSS VDD D Q CLK
.ends

* Black-box entry subcircuit for sg13g2_decap_4 abstract view
.subckt sg13g2_decap_4 VDD VSS
.ends

* Black-box entry subcircuit for sg13g2_nand2_1 abstract view
.subckt sg13g2_nand2_1 Y A B VDD VSS
.ends

* Black-box entry subcircuit for sg13g2_o21ai_1 abstract view
.subckt sg13g2_o21ai_1 B1 VDD Y VSS A1 A2
.ends

* Black-box entry subcircuit for sg13g2_a21oi_1 abstract view
.subckt sg13g2_a21oi_1 VSS VDD A1 A2 Y B1
.ends

* Black-box entry subcircuit for sg13g2_buf_1 abstract view
.subckt sg13g2_buf_1 A X VDD VSS
.ends

* Black-box entry subcircuit for sg13g2_nor2_1 abstract view
.subckt sg13g2_nor2_1 A B Y VDD VSS
.ends

* Black-box entry subcircuit for sg13g2_nor2b_1 abstract view
.subckt sg13g2_nor2b_1 A B_N Y VDD VSS
.ends

* Black-box entry subcircuit for sg13g2_and2_1 abstract view
.subckt sg13g2_and2_1 A B X VDD VSS
.ends

* Black-box entry subcircuit for sg13g2_or2_1 abstract view
.subckt sg13g2_or2_1 VSS VDD X B A
.ends

* Black-box entry subcircuit for sg13g2_nand3_1 abstract view
.subckt sg13g2_nand3_1 B C A Y VDD VSS
.ends

* Black-box entry subcircuit for sg13g2_a22oi_1 abstract view
.subckt sg13g2_a22oi_1 Y B1 B2 A2 A1 VDD VSS
.ends

* Black-box entry subcircuit for sg13g2_nor3_1 abstract view
.subckt sg13g2_nor3_1 A B C Y VDD VSS
.ends

* Black-box entry subcircuit for sg13g2_nand4_1 abstract view
.subckt sg13g2_nand4_1 B C A Y VDD VSS D
.ends

* Black-box entry subcircuit for sg13g2_dlygate4sd3_1 abstract view
.subckt sg13g2_dlygate4sd3_1 A VDD VSS X
.ends

* Black-box entry subcircuit for sg13g2_nor4_1 abstract view
.subckt sg13g2_nor4_1 A B C D Y VDD VSS
.ends

* Black-box entry subcircuit for sg13g2_buf_8 abstract view
.subckt sg13g2_buf_8 A X VDD VSS
.ends

* Black-box entry subcircuit for sg13g2_mux2_1 abstract view
.subckt sg13g2_mux2_1 A0 A1 S X VDD VSS
.ends

* Black-box entry subcircuit for sg13g2_and4_1 abstract view
.subckt sg13g2_and4_1 A B C D X VDD VSS
.ends

* Black-box entry subcircuit for sg13g2_a221oi_1 abstract view
.subckt sg13g2_a221oi_1 VDD VSS B2 C1 B1 A1 Y A2
.ends

* Black-box entry subcircuit for sg13g2_antennanp abstract view
.subckt sg13g2_antennanp VDD VSS A
.ends

* Black-box entry subcircuit for sg13g2_and3_1 abstract view
.subckt sg13g2_and3_1 X A B C VDD VSS
.ends

* Black-box entry subcircuit for sg13g2_or3_1 abstract view
.subckt sg13g2_or3_1 A B C X VDD VSS
.ends

* Black-box entry subcircuit for sg13g2_nand3b_1 abstract view
.subckt sg13g2_nand3b_1 B C Y VDD VSS A_N
.ends

* Black-box entry subcircuit for sg13g2_buf_16 abstract view
.subckt sg13g2_buf_16 X A VDD VSS
.ends

* Black-box entry subcircuit for sg13g2_inv_4 abstract view
.subckt sg13g2_inv_4 A Y VDD VSS
.ends

* Black-box entry subcircuit for sg13g2_inv_8 abstract view
.subckt sg13g2_inv_8 Y A VDD VSS
.ends

* Black-box entry subcircuit for sg13g2_ebufn_2 abstract view
.subckt sg13g2_ebufn_2 TE_B A Z VDD VSS
.ends

* Black-box entry subcircuit for sg13g2_inv_2 abstract view
.subckt sg13g2_inv_2 Y A VDD VSS
.ends

.subckt top VGND VPWR clkA reset spi_miso spi_mosi spi_sclk spi_ss_n x_serial y_serial
XFILLER_151_1945 VPWR VGND sg13g2_decap_8
XFILLER_64_1997 VPWR VGND sg13g2_fill_2
XFILLER_234_1092 VPWR VGND sg13g2_decap_8
XFILLER_132_1333 VPWR VGND sg13g2_decap_8
XFILLER_239_161 VPWR VGND sg13g2_decap_8
XFILLER_223_21 VPWR VGND sg13g2_decap_8
XFILLER_25_1959 VPWR VGND sg13g2_decap_8
XFILLER_112_1929 VPWR VGND sg13g2_decap_8
XFILLER_227_334 VPWR VGND sg13g2_decap_8
X_18869_ _09956_ _09949_ _09950_ VPWR VGND sg13g2_xnor2_1
XFILLER_228_868 VPWR VGND sg13g2_decap_8
XFILLER_94_361 VPWR VGND sg13g2_decap_8
XFILLER_27_406 VPWR VGND sg13g2_decap_8
XFILLER_231_1991 VPWR VGND sg13g2_decap_8
X_23385__1201 VPWR VGND net1200 sg13g2_tiehi
XFILLER_3_1722 VPWR VGND sg13g2_decap_8
XFILLER_249_1729 VPWR VGND sg13g2_decap_8
XFILLER_243_805 VPWR VGND sg13g2_decap_8
X_20900_ _01540_ _01334_ _01302_ VPWR VGND sg13g2_nand2b_1
XFILLER_215_507 VPWR VGND sg13g2_decap_8
X_21880_ _02465_ _02464_ _02473_ _02474_ VPWR VGND sg13g2_a21o_1
XFILLER_223_98 VPWR VGND sg13g2_decap_8
XFILLER_212_1390 VPWR VGND sg13g2_decap_8
XFILLER_82_534 VPWR VGND sg13g2_decap_8
XFILLER_23_1683 VPWR VGND sg13g2_fill_1
XFILLER_242_315 VPWR VGND sg13g2_decap_8
X_20831_ _01468_ _01467_ _01471_ VPWR VGND sg13g2_xor2_1
XFILLER_110_1664 VPWR VGND sg13g2_fill_2
XFILLER_208_592 VPWR VGND sg13g2_decap_8
XFILLER_93_1604 VPWR VGND sg13g2_decap_8
XFILLER_42_409 VPWR VGND sg13g2_decap_8
XFILLER_70_718 VPWR VGND sg13g2_decap_8
XFILLER_247_1442 VPWR VGND sg13g2_decap_8
XFILLER_184_1732 VPWR VGND sg13g2_decap_8
XFILLER_97_1784 VPWR VGND sg13g2_fill_2
XFILLER_3_1799 VPWR VGND sg13g2_decap_8
XFILLER_35_461 VPWR VGND sg13g2_fill_1
XFILLER_58_1746 VPWR VGND sg13g2_decap_8
XFILLER_223_540 VPWR VGND sg13g2_decap_8
XFILLER_208_1415 VPWR VGND sg13g2_decap_8
XFILLER_165_1131 VPWR VGND sg13g2_decap_8
XFILLER_110_1697 VPWR VGND sg13g2_decap_8
XFILLER_74_1025 VPWR VGND sg13g2_fill_1
X_20762_ VPWR _01402_ _01401_ VGND sg13g2_inv_1
XFILLER_184_1765 VPWR VGND sg13g2_decap_8
X_23550_ net1018 VGND VPWR _00612_ sys_enable_bus\[4\] clknet_leaf_47_clkA sg13g2_dfrbpq_1
XFILLER_23_623 VPWR VGND sg13g2_decap_8
XFILLER_39_1145 VPWR VGND sg13g2_decap_8
XFILLER_149_1896 VPWR VGND sg13g2_decap_8
XFILLER_126_1104 VPWR VGND sg13g2_decap_8
XFILLER_39_1156 VPWR VGND sg13g2_fill_1
XFILLER_51_943 VPWR VGND sg13g2_decap_8
XFILLER_62_280 VPWR VGND sg13g2_decap_4
XFILLER_251_882 VPWR VGND sg13g2_decap_8
X_23505__1402 VPWR VGND net1401 sg13g2_tiehi
XFILLER_22_133 VPWR VGND sg13g2_decap_8
X_22501_ _03000_ net960 _03591_ VPWR VGND sg13g2_nand2_1
X_23481_ net1486 VGND VPWR _00543_ u_LMS.x_r\[7\]\[0\] clknet_leaf_12_clkA sg13g2_dfrbpq_1
XFILLER_250_392 VPWR VGND sg13g2_decap_8
X_20693_ _01331_ VPWR _01333_ VGND _01327_ _01332_ sg13g2_o21ai_1
XFILLER_126_1148 VPWR VGND sg13g2_decap_8
XFILLER_50_464 VPWR VGND sg13g2_decap_8
XFILLER_56_1470 VPWR VGND sg13g2_decap_8
XFILLER_225_1762 VPWR VGND sg13g2_decap_8
XFILLER_56_1481 VPWR VGND sg13g2_decap_8
XFILLER_211_768 VPWR VGND sg13g2_decap_8
XFILLER_108_1560 VPWR VGND sg13g2_decap_8
XFILLER_52_1323 VPWR VGND sg13g2_fill_2
XFILLER_195_458 VPWR VGND sg13g2_decap_8
X_22432_ VGND VPWR net445 _03253_ _00524_ _02965_ sg13g2_a21oi_1
XFILLER_104_1402 VPWR VGND sg13g2_decap_4
XFILLER_17_1454 VPWR VGND sg13g2_decap_8
XFILLER_210_267 VPWR VGND sg13g2_decap_8
XFILLER_206_1172 VPWR VGND sg13g2_fill_2
XFILLER_183_609 VPWR VGND sg13g2_decap_8
XFILLER_52_1345 VPWR VGND sg13g2_decap_8
XFILLER_108_1582 VPWR VGND sg13g2_decap_8
XFILLER_206_1194 VPWR VGND sg13g2_decap_8
XFILLER_149_875 VPWR VGND sg13g2_decap_8
XFILLER_202_1036 VPWR VGND sg13g2_decap_8
XFILLER_241_1085 VPWR VGND sg13g2_decap_8
XFILLER_178_1503 VPWR VGND sg13g2_decap_8
X_22363_ net981 VPWR _02931_ VGND net462 net714 sg13g2_o21ai_1
XFILLER_182_119 VPWR VGND sg13g2_decap_8
XFILLER_176_683 VPWR VGND sg13g2_decap_8
XFILLER_175_160 VPWR VGND sg13g2_decap_8
XFILLER_163_300 VPWR VGND sg13g2_fill_1
XFILLER_148_385 VPWR VGND sg13g2_decap_4
XFILLER_202_1069 VPWR VGND sg13g2_decap_8
XFILLER_175_171 VPWR VGND sg13g2_fill_2
XFILLER_248_84 VPWR VGND sg13g2_decap_8
XFILLER_104_1479 VPWR VGND sg13g2_decap_8
XFILLER_163_333 VPWR VGND sg13g2_decap_8
X_21314_ _01931_ _01930_ _01926_ VPWR VGND sg13g2_nand2b_1
XFILLER_184_28 VPWR VGND sg13g2_decap_8
XFILLER_121_1782 VPWR VGND sg13g2_decap_8
X_22294_ net8 VPWR _02880_ VGND net7 _02879_ sg13g2_o21ai_1
XFILLER_164_889 VPWR VGND sg13g2_decap_8
XFILLER_85_1110 VPWR VGND sg13g2_fill_1
XFILLER_123_208 VPWR VGND sg13g2_fill_1
XFILLER_102_1181 VPWR VGND sg13g2_decap_8
XFILLER_11_1064 VPWR VGND sg13g2_decap_8
XFILLER_191_686 VPWR VGND sg13g2_decap_8
XFILLER_163_388 VPWR VGND sg13g2_decap_8
X_21245_ _01862_ _01850_ _01857_ VPWR VGND sg13g2_xnor2_1
XFILLER_156_1834 VPWR VGND sg13g2_decap_4
XFILLER_105_934 VPWR VGND sg13g2_decap_8
XFILLER_190_196 VPWR VGND sg13g2_decap_8
XFILLER_7_7 VPWR VGND sg13g2_decap_8
XFILLER_69_1897 VPWR VGND sg13g2_decap_8
XFILLER_176_1282 VPWR VGND sg13g2_fill_1
XFILLER_132_742 VPWR VGND sg13g2_decap_8
XFILLER_117_1807 VPWR VGND sg13g2_decap_8
XFILLER_104_433 VPWR VGND sg13g2_decap_8
XFILLER_89_133 VPWR VGND sg13g2_decap_8
XFILLER_191_1747 VPWR VGND sg13g2_decap_4
XFILLER_172_1124 VPWR VGND sg13g2_decap_8
X_21176_ _01772_ VPWR _01793_ VGND _01769_ _01773_ sg13g2_o21ai_1
XFILLER_117_77 VPWR VGND sg13g2_decap_8
XFILLER_137_1266 VPWR VGND sg13g2_decap_8
XFILLER_46_1149 VPWR VGND sg13g2_decap_8
Xfanout820 net821 net820 VPWR VGND sg13g2_buf_1
XFILLER_131_252 VPWR VGND sg13g2_decap_8
XFILLER_213_1110 VPWR VGND sg13g2_decap_8
X_20127_ _11166_ _11167_ _11168_ VPWR VGND sg13g2_nor2_1
Xfanout831 net836 net831 VPWR VGND sg13g2_buf_1
XFILLER_77_328 VPWR VGND sg13g2_decap_8
XFILLER_137_1299 VPWR VGND sg13g2_decap_8
Xfanout842 net843 net842 VPWR VGND sg13g2_buf_1
XFILLER_28_1572 VPWR VGND sg13g2_decap_8
XFILLER_232_1744 VPWR VGND sg13g2_decap_8
Xfanout853 net854 net853 VPWR VGND sg13g2_buf_1
XFILLER_252_1181 VPWR VGND sg13g2_decap_8
XFILLER_115_1542 VPWR VGND sg13g2_decap_8
Xfanout864 net865 net864 VPWR VGND sg13g2_buf_1
Xfanout875 net878 net875 VPWR VGND sg13g2_buf_1
XFILLER_133_21 VPWR VGND sg13g2_decap_8
XFILLER_8_1666 VPWR VGND sg13g2_decap_8
XFILLER_19_907 VPWR VGND sg13g2_decap_8
XFILLER_24_1447 VPWR VGND sg13g2_decap_8
X_20058_ _11099_ _11097_ _11098_ VPWR VGND sg13g2_nand2_1
Xfanout886 net887 net886 VPWR VGND sg13g2_buf_1
XFILLER_4_1519 VPWR VGND sg13g2_decap_8
XFILLER_189_1632 VPWR VGND sg13g2_decap_8
Xfanout897 net898 net897 VPWR VGND sg13g2_buf_1
XFILLER_115_1575 VPWR VGND sg13g2_fill_2
XFILLER_18_406 VPWR VGND sg13g2_decap_8
XFILLER_150_1477 VPWR VGND sg13g2_decap_8
XFILLER_98_1537 VPWR VGND sg13g2_fill_1
XFILLER_93_14 VPWR VGND sg13g2_decap_8
XFILLER_58_586 VPWR VGND sg13g2_decap_8
XFILLER_246_665 VPWR VGND sg13g2_decap_8
XFILLER_234_805 VPWR VGND sg13g2_decap_8
X_11900_ VPWR _03321_ u_LMS.w\[5\]\[12\] VGND sg13g2_inv_1
XFILLER_218_367 VPWR VGND sg13g2_decap_8
XFILLER_189_1665 VPWR VGND sg13g2_decap_8
XFILLER_41_1772 VPWR VGND sg13g2_decap_8
X_12880_ _04241_ _04210_ _04240_ VPWR VGND sg13g2_xnor2_1
XFILLER_133_98 VPWR VGND sg13g2_decap_8
XFILLER_2_1232 VPWR VGND sg13g2_decap_8
XFILLER_248_1239 VPWR VGND sg13g2_decap_8
XFILLER_245_175 VPWR VGND sg13g2_decap_8
XFILLER_233_315 VPWR VGND sg13g2_decap_8
XFILLER_185_1529 VPWR VGND sg13g2_decap_8
XFILLER_22_1171 VPWR VGND sg13g2_decap_8
XFILLER_27_962 VPWR VGND sg13g2_decap_4
XFILLER_45_258 VPWR VGND sg13g2_decap_8
X_11831_ VPWR _03252_ net660 VGND sg13g2_inv_1
XFILLER_26_63 VPWR VGND sg13g2_decap_8
XFILLER_57_1223 VPWR VGND sg13g2_decap_8
XFILLER_199_742 VPWR VGND sg13g2_decap_8
XFILLER_148_1351 VPWR VGND sg13g2_decap_8
XFILLER_60_217 VPWR VGND sg13g2_decap_8
X_14550_ _05844_ _05835_ _05842_ VPWR VGND sg13g2_xnor2_1
XFILLER_14_623 VPWR VGND sg13g2_decap_8
XFILLER_26_483 VPWR VGND sg13g2_decap_8
XFILLER_76_1868 VPWR VGND sg13g2_decap_8
XFILLER_167_1985 VPWR VGND sg13g2_decap_8
X_23748_ net1020 VGND VPWR net1729 spi_wdata\[7\] clknet_3_4__leaf_spi_sclk sg13g2_dfrbpq_1
XFILLER_109_1313 VPWR VGND sg13g2_decap_4
XFILLER_242_882 VPWR VGND sg13g2_decap_8
XFILLER_128_1947 VPWR VGND sg13g2_decap_8
XFILLER_18_1207 VPWR VGND sg13g2_decap_8
XFILLER_226_1548 VPWR VGND sg13g2_decap_8
XFILLER_214_584 VPWR VGND sg13g2_decap_8
XFILLER_187_926 VPWR VGND sg13g2_decap_8
XFILLER_183_1264 VPWR VGND sg13g2_decap_4
XFILLER_53_291 VPWR VGND sg13g2_fill_1
XFILLER_202_735 VPWR VGND sg13g2_decap_8
X_13501_ _04833_ _04834_ _04835_ VPWR VGND sg13g2_nor2b_1
X_23051__1137 VPWR VGND net1136 sg13g2_tiehi
XFILLER_92_1158 VPWR VGND sg13g2_decap_8
XFILLER_13_133 VPWR VGND sg13g2_decap_8
XFILLER_187_937 VPWR VGND sg13g2_fill_2
XFILLER_158_105 VPWR VGND sg13g2_decap_8
XFILLER_109_1357 VPWR VGND sg13g2_fill_2
XFILLER_92_1169 VPWR VGND sg13g2_fill_2
XFILLER_241_392 VPWR VGND sg13g2_decap_8
XFILLER_201_223 VPWR VGND sg13g2_decap_8
X_14481_ net1004 VPWR _05779_ VGND net497 net2053 sg13g2_o21ai_1
XFILLER_243_1862 VPWR VGND sg13g2_decap_8
X_23679_ net1028 VGND VPWR net1893 u_debug_unit.mon_w6_sync\[3\] clknet_leaf_31_clkA
+ sg13g2_dfrbpq_1
XFILLER_224_1250 VPWR VGND sg13g2_decap_8
XFILLER_208_1982 VPWR VGND sg13g2_decap_8
XFILLER_74_1581 VPWR VGND sg13g2_decap_8
XFILLER_204_1824 VPWR VGND sg13g2_fill_1
XFILLER_9_126 VPWR VGND sg13g2_decap_8
X_16220_ _07457_ net822 _07456_ VPWR VGND sg13g2_nand2_1
X_13432_ _04773_ _04746_ _04771_ VPWR VGND sg13g2_xnor2_1
XFILLER_161_1551 VPWR VGND sg13g2_decap_8
XFILLER_41_497 VPWR VGND sg13g2_decap_8
XFILLER_186_469 VPWR VGND sg13g2_fill_1
XFILLER_167_650 VPWR VGND sg13g2_decap_8
XFILLER_122_1524 VPWR VGND sg13g2_decap_8
XFILLER_70_1456 VPWR VGND sg13g2_fill_1
XFILLER_220_1125 VPWR VGND sg13g2_decap_8
XFILLER_220_0 VPWR VGND sg13g2_decap_8
XFILLER_10_840 VPWR VGND sg13g2_decap_8
XFILLER_31_1418 VPWR VGND sg13g2_decap_4
XFILLER_155_812 VPWR VGND sg13g2_decap_8
XFILLER_139_363 VPWR VGND sg13g2_decap_8
XFILLER_42_84 VPWR VGND sg13g2_decap_8
XFILLER_161_1595 VPWR VGND sg13g2_fill_1
XFILLER_107_1092 VPWR VGND sg13g2_decap_4
X_16151_ _07389_ _07386_ _07390_ VPWR VGND sg13g2_nor2b_1
X_13363_ VGND VPWR net556 _04705_ _00092_ _04706_ sg13g2_a21oi_1
X_23066__1115 VPWR VGND net1114 sg13g2_tiehi
XFILLER_220_1158 VPWR VGND sg13g2_decap_8
XFILLER_194_480 VPWR VGND sg13g2_decap_8
XFILLER_13_1841 VPWR VGND sg13g2_decap_8
XFILLER_158_84 VPWR VGND sg13g2_decap_8
XFILLER_154_322 VPWR VGND sg13g2_decap_8
XFILLER_6_833 VPWR VGND sg13g2_decap_8
XFILLER_196_1636 VPWR VGND sg13g2_decap_8
X_15102_ _06353_ _06362_ _06375_ VPWR VGND sg13g2_and2_1
X_12314_ _03694_ _03686_ _03693_ VPWR VGND sg13g2_nand2_1
XFILLER_100_1811 VPWR VGND sg13g2_fill_1
XFILLER_170_804 VPWR VGND sg13g2_decap_8
XFILLER_157_1609 VPWR VGND sg13g2_decap_4
XFILLER_104_1991 VPWR VGND sg13g2_decap_8
XFILLER_87_1931 VPWR VGND sg13g2_fill_1
X_16082_ _07323_ _07290_ _07322_ VPWR VGND sg13g2_xnor2_1
X_13294_ VGND VPWR _04639_ net751 net749 sg13g2_or2_1
XFILLER_108_750 VPWR VGND sg13g2_fill_1
XFILLER_5_343 VPWR VGND sg13g2_decap_8
XFILLER_68_1330 VPWR VGND sg13g2_decap_8
XFILLER_177_1057 VPWR VGND sg13g2_decap_4
X_19910_ _10951_ net636 net156 VPWR VGND sg13g2_nand2_1
XFILLER_177_1068 VPWR VGND sg13g2_decap_8
XFILLER_174_1912 VPWR VGND sg13g2_decap_8
XFILLER_170_837 VPWR VGND sg13g2_decap_4
X_15033_ VGND VPWR net492 _06307_ _00160_ _06308_ sg13g2_a21oi_1
X_12245_ _03627_ _03598_ _03625_ VPWR VGND sg13g2_nand2_1
XFILLER_120_1292 VPWR VGND sg13g2_decap_8
XFILLER_107_260 VPWR VGND sg13g2_decap_8
XFILLER_48_1926 VPWR VGND sg13g2_decap_8
XFILLER_170_859 VPWR VGND sg13g2_fill_2
XFILLER_155_1322 VPWR VGND sg13g2_fill_2
XFILLER_237_1666 VPWR VGND sg13g2_decap_8
XFILLER_218_1043 VPWR VGND sg13g2_decap_8
XFILLER_123_742 VPWR VGND sg13g2_decap_4
XFILLER_100_1899 VPWR VGND sg13g2_decap_8
XFILLER_135_1918 VPWR VGND sg13g2_decap_8
X_12176_ net950 net1709 _00012_ VPWR VGND sg13g2_nor2b_1
X_19841_ _10895_ _10842_ _10844_ VPWR VGND sg13g2_xnor2_1
XFILLER_68_1396 VPWR VGND sg13g2_decap_8
XFILLER_174_1978 VPWR VGND sg13g2_decap_8
XFILLER_190_1246 VPWR VGND sg13g2_decap_8
XFILLER_123_775 VPWR VGND sg13g2_decap_8
XFILLER_122_252 VPWR VGND sg13g2_decap_8
XFILLER_69_829 VPWR VGND sg13g2_decap_4
XFILLER_215_1942 VPWR VGND sg13g2_decap_8
XFILLER_1_560 VPWR VGND sg13g2_decap_8
XFILLER_111_948 VPWR VGND sg13g2_decap_8
XFILLER_96_637 VPWR VGND sg13g2_fill_2
XFILLER_3_56 VPWR VGND sg13g2_decap_8
XFILLER_68_328 VPWR VGND sg13g2_decap_8
XFILLER_231_1221 VPWR VGND sg13g2_decap_8
X_16984_ _08140_ _08138_ _08139_ VPWR VGND sg13g2_nand2b_1
X_19772_ _10836_ u_LMS.w\[4\]\[20\] net65 VPWR VGND sg13g2_nand2_1
XFILLER_133_1631 VPWR VGND sg13g2_decap_8
XFILLER_46_1683 VPWR VGND sg13g2_decap_8
XFILLER_250_1855 VPWR VGND sg13g2_decap_8
XFILLER_209_301 VPWR VGND sg13g2_fill_1
XFILLER_42_1525 VPWR VGND sg13g2_decap_8
XFILLER_46_1694 VPWR VGND sg13g2_fill_2
XFILLER_77_840 VPWR VGND sg13g2_decap_8
XFILLER_110_458 VPWR VGND sg13g2_decap_8
XFILLER_95_147 VPWR VGND sg13g2_decap_8
X_18723_ _09790_ VPWR _09810_ VGND _09787_ _09791_ sg13g2_o21ai_1
X_15935_ _07180_ _07165_ _07178_ VPWR VGND sg13g2_xnor2_1
XFILLER_49_553 VPWR VGND sg13g2_fill_2
XFILLER_67_70 VPWR VGND sg13g2_decap_8
XFILLER_83_309 VPWR VGND sg13g2_fill_1
XFILLER_7_1176 VPWR VGND sg13g2_decap_8
XFILLER_42_1569 VPWR VGND sg13g2_fill_1
XFILLER_237_665 VPWR VGND sg13g2_decap_8
XFILLER_225_805 VPWR VGND sg13g2_decap_8
XFILLER_3_1029 VPWR VGND sg13g2_decap_8
XFILLER_24_1970 VPWR VGND sg13g2_decap_8
XFILLER_64_512 VPWR VGND sg13g2_decap_8
XFILLER_231_1298 VPWR VGND sg13g2_decap_8
X_18654_ net361 VPWR _09746_ VGND net1989 net376 sg13g2_o21ai_1
XFILLER_36_214 VPWR VGND sg13g2_fill_2
XFILLER_252_602 VPWR VGND sg13g2_decap_8
X_15866_ _07085_ _07113_ _07114_ VPWR VGND sg13g2_nor2b_1
XFILLER_188_1153 VPWR VGND sg13g2_decap_8
XFILLER_236_175 VPWR VGND sg13g2_decap_8
XFILLER_225_838 VPWR VGND sg13g2_decap_8
XFILLER_224_315 VPWR VGND sg13g2_decap_8
XFILLER_168_1738 VPWR VGND sg13g2_decap_8
XFILLER_92_854 VPWR VGND sg13g2_decap_8
XFILLER_91_331 VPWR VGND sg13g2_fill_1
XFILLER_94_1902 VPWR VGND sg13g2_fill_1
XFILLER_251_112 VPWR VGND sg13g2_decap_8
X_17605_ _08734_ VPWR _08738_ VGND _08735_ _08737_ sg13g2_o21ai_1
X_14817_ _06104_ u_FIR.sum\[4\]\[11\] net402 VPWR VGND sg13g2_xnor2_1
XFILLER_111_1984 VPWR VGND sg13g2_decap_8
X_18585_ _09691_ net34 net37 _09692_ VPWR VGND sg13g2_a21o_1
XFILLER_75_1301 VPWR VGND sg13g2_decap_8
X_15797_ _07016_ _07046_ _07047_ VPWR VGND sg13g2_nor2_1
XFILLER_64_589 VPWR VGND sg13g2_decap_8
XFILLER_91_375 VPWR VGND sg13g2_decap_8
XFILLER_18_984 VPWR VGND sg13g2_decap_8
XFILLER_252_679 VPWR VGND sg13g2_decap_8
XFILLER_240_819 VPWR VGND sg13g2_decap_8
XFILLER_33_921 VPWR VGND sg13g2_decap_8
XFILLER_45_781 VPWR VGND sg13g2_fill_2
XFILLER_51_217 VPWR VGND sg13g2_decap_8
X_17536_ _08650_ _08667_ _08648_ _08669_ VPWR VGND sg13g2_nand3_1
XFILLER_17_483 VPWR VGND sg13g2_decap_8
XFILLER_51_228 VPWR VGND sg13g2_fill_1
XFILLER_205_562 VPWR VGND sg13g2_decap_8
XFILLER_178_904 VPWR VGND sg13g2_decap_8
X_14748_ _06037_ _06028_ _06035_ VPWR VGND sg13g2_xnor2_1
XFILLER_83_91 VPWR VGND sg13g2_decap_8
XFILLER_209_1757 VPWR VGND sg13g2_decap_4
XFILLER_251_189 VPWR VGND sg13g2_decap_8
XFILLER_225_1025 VPWR VGND sg13g2_fill_1
XFILLER_166_1473 VPWR VGND sg13g2_decap_8
XFILLER_244_1659 VPWR VGND sg13g2_decap_8
XFILLER_205_595 VPWR VGND sg13g2_decap_8
XFILLER_199_91 VPWR VGND sg13g2_decap_8
XFILLER_189_274 VPWR VGND sg13g2_decap_8
XFILLER_181_1949 VPWR VGND sg13g2_decap_8
XFILLER_178_937 VPWR VGND sg13g2_decap_8
XFILLER_149_105 VPWR VGND sg13g2_decap_8
XFILLER_33_976 VPWR VGND sg13g2_decap_8
XFILLER_71_1209 VPWR VGND sg13g2_decap_8
XFILLER_75_1378 VPWR VGND sg13g2_decap_8
XFILLER_232_392 VPWR VGND sg13g2_decap_8
X_17467_ _08600_ net82 _08598_ VPWR VGND sg13g2_nand2b_1
XFILLER_32_453 VPWR VGND sg13g2_decap_8
X_14679_ _05948_ VPWR _05969_ VGND _05949_ _05957_ sg13g2_o21ai_1
XFILLER_60_784 VPWR VGND sg13g2_decap_8
XFILLER_222_1924 VPWR VGND sg13g2_decap_8
XFILLER_203_1312 VPWR VGND sg13g2_decap_8
X_19206_ _10288_ net311 net2417 net2156 net567 VPWR VGND sg13g2_a22oi_1
XFILLER_20_637 VPWR VGND sg13g2_decap_8
X_16418_ _07648_ u_FIR.sum\[7\]\[16\] net393 VPWR VGND sg13g2_nand2_1
XFILLER_140_1602 VPWR VGND sg13g2_decap_8
XFILLER_105_1722 VPWR VGND sg13g2_decap_8
XFILLER_18_1774 VPWR VGND sg13g2_decap_8
XFILLER_34_1031 VPWR VGND sg13g2_decap_8
XFILLER_242_1372 VPWR VGND sg13g2_decap_8
X_17398_ _08483_ VPWR _08543_ VGND _08482_ _08485_ sg13g2_o21ai_1
XFILLER_192_417 VPWR VGND sg13g2_decap_8
XFILLER_140_1635 VPWR VGND sg13g2_decap_8
XFILLER_164_119 VPWR VGND sg13g2_decap_8
X_19137_ _10224_ _03329_ _10187_ VPWR VGND sg13g2_nand2_1
XFILLER_88_1706 VPWR VGND sg13g2_decap_8
XFILLER_14_1649 VPWR VGND sg13g2_decap_8
X_16349_ _07568_ VPWR _07582_ VGND net279 _07566_ sg13g2_o21ai_1
XFILLER_53_1698 VPWR VGND sg13g2_decap_8
XFILLER_118_525 VPWR VGND sg13g2_decap_8
XFILLER_146_845 VPWR VGND sg13g2_decap_8
XFILLER_9_693 VPWR VGND sg13g2_decap_8
XFILLER_203_1389 VPWR VGND sg13g2_decap_8
XFILLER_105_1799 VPWR VGND sg13g2_decap_8
XFILLER_218_21 VPWR VGND sg13g2_decap_8
XFILLER_199_1282 VPWR VGND sg13g2_decap_4
XFILLER_179_1856 VPWR VGND sg13g2_decap_8
XFILLER_121_1067 VPWR VGND sg13g2_decap_8
XFILLER_66_0 VPWR VGND sg13g2_decap_8
X_19068_ VGND VPWR net659 net163 _10155_ _10154_ sg13g2_a21oi_1
XFILLER_12_1351 VPWR VGND sg13g2_decap_8
XFILLER_31_1974 VPWR VGND sg13g2_decap_8
X_18019_ _09140_ _09085_ _09141_ VPWR VGND sg13g2_xor2_1
XFILLER_195_1168 VPWR VGND sg13g2_decap_8
XFILLER_173_1400 VPWR VGND sg13g2_decap_8
XFILLER_145_399 VPWR VGND sg13g2_decap_8
XFILLER_126_580 VPWR VGND sg13g2_decap_8
XFILLER_114_720 VPWR VGND sg13g2_decap_8
XFILLER_47_1403 VPWR VGND sg13g2_decap_8
XFILLER_218_98 VPWR VGND sg13g2_decap_8
X_21030_ _01668_ _01629_ _01631_ VPWR VGND sg13g2_xnor2_1
XFILLER_160_358 VPWR VGND sg13g2_decap_8
XFILLER_99_442 VPWR VGND sg13g2_fill_2
XFILLER_86_1485 VPWR VGND sg13g2_decap_8
XFILLER_138_1564 VPWR VGND sg13g2_decap_8
Xfanout105 net108 net105 VPWR VGND sg13g2_buf_1
XFILLER_236_1176 VPWR VGND sg13g2_decap_8
Xfanout116 net117 net116 VPWR VGND sg13g2_buf_1
XFILLER_59_306 VPWR VGND sg13g2_decap_8
XFILLER_173_1477 VPWR VGND sg13g2_decap_8
XFILLER_141_572 VPWR VGND sg13g2_decap_8
Xfanout127 _07972_ net127 VPWR VGND sg13g2_buf_1
XFILLER_234_42 VPWR VGND sg13g2_decap_8
Xfanout138 net139 net138 VPWR VGND sg13g2_buf_1
XFILLER_134_1439 VPWR VGND sg13g2_decap_8
XFILLER_99_497 VPWR VGND sg13g2_decap_8
XFILLER_64_1761 VPWR VGND sg13g2_fill_2
XFILLER_9_1953 VPWR VGND sg13g2_decap_8
Xfanout149 net152 net149 VPWR VGND sg13g2_buf_1
XFILLER_64_1772 VPWR VGND sg13g2_decap_8
XFILLER_214_1441 VPWR VGND sg13g2_fill_2
XFILLER_113_296 VPWR VGND sg13g2_decap_8
XFILLER_60_1614 VPWR VGND sg13g2_decap_8
XFILLER_101_447 VPWR VGND sg13g2_decap_8
XFILLER_5_1806 VPWR VGND sg13g2_decap_8
XFILLER_116_1862 VPWR VGND sg13g2_decap_8
XFILLER_99_1802 VPWR VGND sg13g2_decap_8
XFILLER_86_147 VPWR VGND sg13g2_decap_8
XFILLER_214_1463 VPWR VGND sg13g2_decap_4
XFILLER_25_1756 VPWR VGND sg13g2_decap_8
XFILLER_112_1715 VPWR VGND sg13g2_fill_1
X_22981_ net1002 VGND VPWR net1670 u_spi_slave.tx_shift\[11\] net1638 sg13g2_dfrbpq_1
XFILLER_41_1035 VPWR VGND sg13g2_decap_8
XFILLER_67_361 VPWR VGND sg13g2_decap_8
XFILLER_210_1338 VPWR VGND sg13g2_decap_8
XFILLER_27_203 VPWR VGND sg13g2_decap_8
XFILLER_132_1174 VPWR VGND sg13g2_decap_8
XFILLER_249_1526 VPWR VGND sg13g2_decap_8
XFILLER_243_602 VPWR VGND sg13g2_decap_8
X_21932_ _02525_ _02524_ _02526_ VPWR VGND sg13g2_xor2_1
XFILLER_41_1079 VPWR VGND sg13g2_decap_4
XFILLER_216_838 VPWR VGND sg13g2_decap_8
XFILLER_167_1204 VPWR VGND sg13g2_decap_8
XFILLER_103_35 VPWR VGND sg13g2_decap_8
XFILLER_55_545 VPWR VGND sg13g2_fill_1
XFILLER_227_175 VPWR VGND sg13g2_decap_8
XFILLER_242_112 VPWR VGND sg13g2_decap_8
XFILLER_250_63 VPWR VGND sg13g2_decap_8
XFILLER_82_353 VPWR VGND sg13g2_decap_8
XFILLER_110_1461 VPWR VGND sg13g2_decap_8
X_21863_ _02455_ VPWR _02457_ VGND _02452_ _02454_ sg13g2_o21ai_1
XFILLER_55_578 VPWR VGND sg13g2_decap_8
XFILLER_36_770 VPWR VGND sg13g2_decap_8
XFILLER_63_28 VPWR VGND sg13g2_decap_8
XFILLER_3_1596 VPWR VGND sg13g2_decap_8
XFILLER_42_217 VPWR VGND sg13g2_decap_8
XFILLER_243_679 VPWR VGND sg13g2_decap_8
X_23602_ net1023 VGND VPWR _00664_ coeff_force_packed\[42\] clknet_leaf_28_clkA sg13g2_dfrbpq_1
XFILLER_58_1543 VPWR VGND sg13g2_decap_8
X_20814_ _01452_ _01453_ _01454_ VPWR VGND sg13g2_nor2_1
XFILLER_24_932 VPWR VGND sg13g2_decap_8
XFILLER_227_1846 VPWR VGND sg13g2_decap_8
XFILLER_179_28 VPWR VGND sg13g2_decap_8
XFILLER_149_1682 VPWR VGND sg13g2_decap_8
XFILLER_145_1513 VPWR VGND sg13g2_decap_8
X_21794_ _02367_ VPWR _02388_ VGND _02364_ _02368_ sg13g2_o21ai_1
XFILLER_23_420 VPWR VGND sg13g2_decap_8
XFILLER_19_1527 VPWR VGND sg13g2_decap_8
XFILLER_242_189 VPWR VGND sg13g2_decap_8
XFILLER_208_1245 VPWR VGND sg13g2_decap_8
XFILLER_196_712 VPWR VGND sg13g2_decap_8
XFILLER_180_1415 VPWR VGND sg13g2_decap_8
XFILLER_168_403 VPWR VGND sg13g2_decap_8
XFILLER_93_1467 VPWR VGND sg13g2_decap_8
XFILLER_184_1584 VPWR VGND sg13g2_decap_4
XFILLER_58_1587 VPWR VGND sg13g2_decap_8
X_23533_ net964 VGND VPWR _00595_ u_debug_unit.sw_reset\[3\] clknet_leaf_71_clkA sg13g2_dfrbpq_1
X_20745_ _01385_ _01383_ _01384_ VPWR VGND sg13g2_xnor2_1
XFILLER_144_7 VPWR VGND sg13g2_decap_8
XFILLER_208_1278 VPWR VGND sg13g2_decap_8
XFILLER_168_436 VPWR VGND sg13g2_decap_8
XFILLER_243_1169 VPWR VGND sg13g2_decap_8
XFILLER_211_565 VPWR VGND sg13g2_decap_8
XFILLER_11_637 VPWR VGND sg13g2_decap_8
XFILLER_50_272 VPWR VGND sg13g2_decap_8
XFILLER_195_244 VPWR VGND sg13g2_decap_8
XFILLER_23_497 VPWR VGND sg13g2_decap_8
X_20676_ _01316_ _01312_ _01315_ VPWR VGND sg13g2_nand2_1
X_23464_ net1546 VGND VPWR _00526_ u_LMS.x_r\[4\]\[7\] clknet_leaf_9_clkA sg13g2_dfrbpq_1
XFILLER_91_1180 VPWR VGND sg13g2_decap_8
XFILLER_17_1251 VPWR VGND sg13g2_decap_8
XFILLER_221_1423 VPWR VGND sg13g2_decap_4
XFILLER_183_406 VPWR VGND sg13g2_decap_8
XFILLER_162_1882 VPWR VGND sg13g2_decap_8
XFILLER_143_1270 VPWR VGND sg13g2_decap_8
XFILLER_123_1855 VPWR VGND sg13g2_decap_8
XFILLER_10_147 VPWR VGND sg13g2_decap_8
XFILLER_149_683 VPWR VGND sg13g2_fill_2
XFILLER_12_21 VPWR VGND sg13g2_decap_8
X_22415_ net955 VPWR _02957_ VGND net440 net663 sg13g2_o21ai_1
XFILLER_148_171 VPWR VGND sg13g2_decap_8
XFILLER_195_49 VPWR VGND sg13g2_decap_8
XFILLER_178_1311 VPWR VGND sg13g2_fill_2
X_23395_ net1170 VGND VPWR _00457_ u_LMS.w\[7\]\[5\] clknet_leaf_10_clkA sg13g2_dfrbpq_1
XFILLER_13_1148 VPWR VGND sg13g2_decap_8
XFILLER_128_21 VPWR VGND sg13g2_decap_8
XFILLER_87_1216 VPWR VGND sg13g2_decap_8
XFILLER_197_1956 VPWR VGND sg13g2_decap_8
XFILLER_164_664 VPWR VGND sg13g2_decap_8
X_22346_ VGND VPWR net48 _02919_ _02920_ net6 sg13g2_a21oi_1
XFILLER_163_141 VPWR VGND sg13g2_decap_8
XFILLER_104_1298 VPWR VGND sg13g2_decap_8
XFILLER_136_377 VPWR VGND sg13g2_fill_2
XFILLER_88_14 VPWR VGND sg13g2_decap_8
XFILLER_12_98 VPWR VGND sg13g2_decap_8
XFILLER_30_1473 VPWR VGND sg13g2_decap_8
XFILLER_238_1953 VPWR VGND sg13g2_decap_8
XFILLER_136_399 VPWR VGND sg13g2_decap_8
X_22277_ _02847_ VPWR _02866_ VGND _02824_ _02865_ sg13g2_o21ai_1
XFILLER_156_1620 VPWR VGND sg13g2_decap_8
XFILLER_151_336 VPWR VGND sg13g2_decap_8
X_23062__1121 VPWR VGND net1120 sg13g2_tiehi
XFILLER_3_847 VPWR VGND sg13g2_decap_8
XFILLER_128_98 VPWR VGND sg13g2_decap_8
XFILLER_65_1514 VPWR VGND sg13g2_decap_8
XFILLER_234_1806 VPWR VGND sg13g2_decap_8
X_12030_ _03447_ net293 sys_enable_bus\[7\] net303 u_debug_unit.force_w5\[7\] VPWR
+ VGND sg13g2_a22oi_1
X_21228_ _01844_ _01755_ _01845_ VPWR VGND sg13g2_xor2_1
XFILLER_219_1374 VPWR VGND sg13g2_fill_2
XFILLER_215_1205 VPWR VGND sg13g2_decap_8
XFILLER_176_1090 VPWR VGND sg13g2_decap_8
XFILLER_2_357 VPWR VGND sg13g2_decap_8
XFILLER_219_1385 VPWR VGND sg13g2_decap_8
XFILLER_152_1517 VPWR VGND sg13g2_decap_8
XFILLER_78_626 VPWR VGND sg13g2_fill_1
XFILLER_191_1577 VPWR VGND sg13g2_decap_4
XFILLER_156_1697 VPWR VGND sg13g2_decap_8
XFILLER_152_1528 VPWR VGND sg13g2_fill_1
XFILLER_144_42 VPWR VGND sg13g2_decap_8
XFILLER_215_1249 VPWR VGND sg13g2_fill_1
X_21159_ _01768_ _01775_ _01776_ VPWR VGND sg13g2_and2_1
XFILLER_120_745 VPWR VGND sg13g2_decap_8
XFILLER_232_1541 VPWR VGND sg13g2_decap_8
XFILLER_47_1992 VPWR VGND sg13g2_decap_8
XFILLER_219_610 VPWR VGND sg13g2_decap_8
Xfanout650 u_LMS.x_r\[4\]\[4\] net650 VPWR VGND sg13g2_buf_1
XFILLER_28_1380 VPWR VGND sg13g2_decap_8
XFILLER_77_147 VPWR VGND sg13g2_decap_8
XFILLER_93_607 VPWR VGND sg13g2_decap_4
Xfanout661 u_LMS.x_r\[3\]\[6\] net661 VPWR VGND sg13g2_buf_1
XFILLER_8_1463 VPWR VGND sg13g2_decap_8
Xfanout672 net673 net672 VPWR VGND sg13g2_buf_1
XFILLER_59_862 VPWR VGND sg13g2_decap_8
XFILLER_63_1282 VPWR VGND sg13g2_decap_4
X_13981_ _05297_ net769 net910 VPWR VGND sg13g2_nand2_1
Xfanout683 u_LMS.x_r\[2\]\[2\] net683 VPWR VGND sg13g2_buf_1
XFILLER_4_1316 VPWR VGND sg13g2_decap_8
XFILLER_24_1244 VPWR VGND sg13g2_decap_8
XFILLER_247_952 VPWR VGND sg13g2_decap_8
XFILLER_130_1826 VPWR VGND sg13g2_fill_2
Xfanout694 u_LMS.x_r\[1\]\[4\] net694 VPWR VGND sg13g2_buf_1
XFILLER_93_629 VPWR VGND sg13g2_fill_2
XFILLER_111_1214 VPWR VGND sg13g2_fill_1
XFILLER_58_361 VPWR VGND sg13g2_decap_8
XFILLER_189_1440 VPWR VGND sg13g2_decap_8
XFILLER_115_1383 VPWR VGND sg13g2_decap_8
XFILLER_18_203 VPWR VGND sg13g2_decap_8
X_15720_ _06931_ _06933_ _06971_ _06972_ VPWR VGND sg13g2_nor3_1
XFILLER_234_602 VPWR VGND sg13g2_decap_8
X_12932_ _04255_ _04290_ _04291_ VPWR VGND sg13g2_nor2_1
XFILLER_130_1848 VPWR VGND sg13g2_decap_4
XFILLER_74_832 VPWR VGND sg13g2_decap_8
XFILLER_246_462 VPWR VGND sg13g2_decap_8
XFILLER_111_1247 VPWR VGND sg13g2_decap_8
XFILLER_74_854 VPWR VGND sg13g2_decap_8
XFILLER_218_175 VPWR VGND sg13g2_decap_8
XFILLER_170_0 VPWR VGND sg13g2_decap_8
XFILLER_233_112 VPWR VGND sg13g2_decap_8
XFILLER_248_1036 VPWR VGND sg13g2_decap_8
XFILLER_210_1883 VPWR VGND sg13g2_decap_8
XFILLER_206_337 VPWR VGND sg13g2_fill_1
XFILLER_37_84 VPWR VGND sg13g2_decap_8
X_15651_ net881 _06903_ net790 _06904_ VPWR VGND sg13g2_nand3_1
X_12863_ _04224_ _04223_ _04219_ VPWR VGND sg13g2_nand2b_1