* NGSPICE file created from top.ext - technology: ihp-sg13g2

* Black-box entry subcircuit for sg13g2_xnor2_1 abstract view
.subckt sg13g2_xnor2_1 Y A B VDD VSS
.ends

* Black-box entry subcircuit for sg13g2_fill_2 abstract view
.subckt sg13g2_fill_2 VDD VSS
.ends

* Black-box entry subcircuit for sg13g2_nand2b_1 abstract view
.subckt sg13g2_nand2b_1 Y B A_N VDD VSS
.ends

* Black-box entry subcircuit for sg13g2_a21o_1 abstract view
.subckt sg13g2_a21o_1 A2 A1 B1 X VDD VSS
.ends

* Black-box entry subcircuit for sg13g2_decap_8 abstract view
.subckt sg13g2_decap_8 VDD VSS
.ends

* Black-box entry subcircuit for sg13g2_xor2_1 abstract view
.subckt sg13g2_xor2_1 B A X VDD VSS
.ends

* Black-box entry subcircuit for sg13g2_fill_1 abstract view
.subckt sg13g2_fill_1 VDD VSS
.ends

* Black-box entry subcircuit for sg13g2_inv_1 abstract view
.subckt sg13g2_inv_1 VDD Y A VSS
.ends

* Black-box entry subcircuit for sg13g2_dfrbpq_1 abstract view
.subckt sg13g2_dfrbpq_1 RESET_B VSS VDD D Q CLK
.ends

* Black-box entry subcircuit for sg13g2_tiehi abstract view
.subckt sg13g2_tiehi VDD VSS L_HI
.ends

* Black-box entry subcircuit for sg13g2_nand2_1 abstract view
.subckt sg13g2_nand2_1 Y A B VDD VSS
.ends

* Black-box entry subcircuit for sg13g2_o21ai_1 abstract view
.subckt sg13g2_o21ai_1 B1 VDD Y VSS A1 A2
.ends

* Black-box entry subcircuit for sg13g2_decap_4 abstract view
.subckt sg13g2_decap_4 VDD VSS
.ends

* Black-box entry subcircuit for sg13g2_a21oi_1 abstract view
.subckt sg13g2_a21oi_1 VSS VDD A1 A2 Y B1
.ends

* Black-box entry subcircuit for sg13g2_buf_2 abstract view
.subckt sg13g2_buf_2 A X VDD VSS
.ends

* Black-box entry subcircuit for sg13g2_buf_1 abstract view
.subckt sg13g2_buf_1 A X VDD VSS
.ends

* Black-box entry subcircuit for sg13g2_nor2_1 abstract view
.subckt sg13g2_nor2_1 A B Y VDD VSS
.ends

* Black-box entry subcircuit for sg13g2_nor2b_1 abstract view
.subckt sg13g2_nor2b_1 A B_N Y VDD VSS
.ends

* Black-box entry subcircuit for sg13g2_and2_1 abstract view
.subckt sg13g2_and2_1 A B X VDD VSS
.ends

* Black-box entry subcircuit for sg13g2_or2_1 abstract view
.subckt sg13g2_or2_1 VSS VDD X B A
.ends

* Black-box entry subcircuit for sg13g2_nand3_1 abstract view
.subckt sg13g2_nand3_1 B C A Y VDD VSS
.ends

* Black-box entry subcircuit for sg13g2_a22oi_1 abstract view
.subckt sg13g2_a22oi_1 Y B1 B2 A2 A1 VDD VSS
.ends

* Black-box entry subcircuit for sg13g2_buf_4 abstract view
.subckt sg13g2_buf_4 X A VDD VSS
.ends

* Black-box entry subcircuit for sg13g2_buf_8 abstract view
.subckt sg13g2_buf_8 A X VDD VSS
.ends

* Black-box entry subcircuit for sg13g2_nor3_1 abstract view
.subckt sg13g2_nor3_1 A B C Y VDD VSS
.ends

* Black-box entry subcircuit for sg13g2_nand4_1 abstract view
.subckt sg13g2_nand4_1 B C A Y VDD VSS D
.ends

* Black-box entry subcircuit for sg13g2_nor4_2 abstract view
.subckt sg13g2_nor4_2 A B C Y VSS VDD D
.ends

* Black-box entry subcircuit for sg13g2_nor4_1 abstract view
.subckt sg13g2_nor4_1 A B C D Y VDD VSS
.ends

* Black-box entry subcircuit for sg13g2_nand2_2 abstract view
.subckt sg13g2_nand2_2 Y A B VDD VSS
.ends

* Black-box entry subcircuit for sg13g2_mux2_1 abstract view
.subckt sg13g2_mux2_1 A0 A1 S X VDD VSS
.ends

* Black-box entry subcircuit for sg13g2_and4_1 abstract view
.subckt sg13g2_and4_1 A B C D X VDD VSS
.ends

* Black-box entry subcircuit for sg13g2_a221oi_1 abstract view
.subckt sg13g2_a221oi_1 VDD VSS B2 C1 B1 A1 Y A2
.ends

* Black-box entry subcircuit for sg13g2_dfrbpq_2 abstract view
.subckt sg13g2_dfrbpq_2 RESET_B VSS VDD D Q CLK
.ends

* Black-box entry subcircuit for sg13g2_antennanp abstract view
.subckt sg13g2_antennanp VDD VSS A
.ends

* Black-box entry subcircuit for sg13g2_and3_1 abstract view
.subckt sg13g2_and3_1 X A B C VDD VSS
.ends

* Black-box entry subcircuit for sg13g2_or3_1 abstract view
.subckt sg13g2_or3_1 A B C X VDD VSS
.ends

* Black-box entry subcircuit for sg13g2_buf_16 abstract view
.subckt sg13g2_buf_16 X A VDD VSS
.ends

* Black-box entry subcircuit for sg13g2_nand3b_1 abstract view
.subckt sg13g2_nand3b_1 B C Y VDD VSS A_N
.ends

* Black-box entry subcircuit for sg13g2_nor3_2 abstract view
.subckt sg13g2_nor3_2 A B C Y VDD VSS
.ends

* Black-box entry subcircuit for sg13g2_a21oi_2 abstract view
.subckt sg13g2_a21oi_2 VSS VDD B1 Y A2 A1
.ends

* Black-box entry subcircuit for sg13g2_nor2_2 abstract view
.subckt sg13g2_nor2_2 A B Y VDD VSS
.ends

* Black-box entry subcircuit for sg13g2_inv_2 abstract view
.subckt sg13g2_inv_2 Y A VDD VSS
.ends

* Black-box entry subcircuit for sg13g2_inv_4 abstract view
.subckt sg13g2_inv_4 A Y VDD VSS
.ends

* Black-box entry subcircuit for sg13g2_or3_2 abstract view
.subckt sg13g2_or3_2 A B C X VDD VSS
.ends

* Black-box entry subcircuit for sg13g2_ebufn_2 abstract view
.subckt sg13g2_ebufn_2 TE_B A Z VDD VSS
.ends

* Black-box entry subcircuit for sg13g2_and2_2 abstract view
.subckt sg13g2_and2_2 A B X VDD VSS
.ends

* Black-box entry subcircuit for sg13g2_inv_8 abstract view
.subckt sg13g2_inv_8 Y A VDD VSS
.ends

* Black-box entry subcircuit for sg13g2_mux2_2 abstract view
.subckt sg13g2_mux2_2 A0 A1 S X VDD VSS
.ends

* Black-box entry subcircuit for sg13g2_nor2b_2 abstract view
.subckt sg13g2_nor2b_2 A B_N Y VDD VSS
.ends

* Black-box entry subcircuit for sg13g2_and3_2 abstract view
.subckt sg13g2_and3_2 X A B C VDD VSS
.ends

.subckt top VGND VPWR clkA reset spi_miso spi_mosi spi_sclk spi_ss_n x_serial y_serial
X_18869_ _09956_ _09949_ _09950_ VPWR VGND sg13g2_xnor2_1
XFILLER_28_929 VPWR VGND sg13g2_fill_2
X_20900_ _01540_ _01334_ _01302_ VPWR VGND sg13g2_nand2b_1
X_21880_ _02465_ _02464_ _02473_ _02474_ VPWR VGND sg13g2_a21o_1
XFILLER_55_759 VPWR VGND sg13g2_decap_8
X_20831_ _01468_ _01467_ _01471_ VPWR VGND sg13g2_xor2_1
XFILLER_70_729 VPWR VGND sg13g2_fill_1
XFILLER_35_461 VPWR VGND sg13g2_decap_8
XFILLER_74_1025 VPWR VGND sg13g2_fill_1
X_20762_ VPWR _01402_ _01401_ VGND sg13g2_inv_1
X_23550_ net1011 VGND VPWR _00612_ sys_enable_bus\[4\] clknet_leaf_37_clkA sg13g2_dfrbpq_1
X_23523__1325 VPWR VGND net1324 sg13g2_tiehi
XFILLER_51_965 VPWR VGND sg13g2_fill_1
XFILLER_23_656 VPWR VGND sg13g2_fill_2
X_22501_ _03000_ net952 _03591_ VPWR VGND sg13g2_nand2_1
X_23481_ net1479 VGND VPWR _00543_ u_LMS.x_r\[7\]\[0\] clknet_leaf_9_clkA sg13g2_dfrbpq_1
X_20693_ _01331_ VPWR _01333_ VGND _01327_ _01332_ sg13g2_o21ai_1
XFILLER_11_818 VPWR VGND sg13g2_decap_4
XFILLER_11_829 VPWR VGND sg13g2_fill_1
X_22432_ VGND VPWR net436 _03253_ _00524_ _02965_ sg13g2_a21oi_1
XFILLER_50_486 VPWR VGND sg13g2_fill_1
XFILLER_109_728 VPWR VGND sg13g2_decap_8
X_22363_ net1027 VPWR _02931_ VGND net455 net709 sg13g2_o21ai_1
X_21314_ _01931_ _01930_ _01926_ VPWR VGND sg13g2_nand2b_1
XFILLER_11_1031 VPWR VGND sg13g2_decap_8
X_22294_ net9 VPWR _02880_ VGND _02848_ _02879_ sg13g2_o21ai_1
XFILLER_104_400 VPWR VGND sg13g2_decap_4
X_21245_ _01862_ _01850_ _01857_ VPWR VGND sg13g2_xnor2_1
XFILLER_105_945 VPWR VGND sg13g2_decap_8
XFILLER_7_7 VPWR VGND sg13g2_decap_8
XFILLER_81_1007 VPWR VGND sg13g2_fill_1
X_21176_ _01772_ VPWR _01793_ VGND _01769_ _01773_ sg13g2_o21ai_1
Xrebuffer2062 _01559_ net2061 VPWR VGND sg13g2_buf_2
XFILLER_77_26 VPWR VGND sg13g2_decap_8
XFILLER_117_77 VPWR VGND sg13g2_decap_8
XFILLER_105_989 VPWR VGND sg13g2_decap_8
Xrebuffer2073 net2076 net2072 VPWR VGND sg13g2_buf_1
Xfanout820 net821 net820 VPWR VGND sg13g2_buf_1
Xrebuffer2084 _10172_ net2083 VPWR VGND sg13g2_buf_2
XFILLER_78_829 VPWR VGND sg13g2_decap_4
XFILLER_104_477 VPWR VGND sg13g2_decap_4
Xrebuffer2095 _09313_ net2094 VPWR VGND sg13g2_buf_1
XFILLER_77_48 VPWR VGND sg13g2_fill_1
XFILLER_132_786 VPWR VGND sg13g2_decap_8
X_20127_ _11166_ _11167_ _11168_ VPWR VGND sg13g2_nor2_1
Xfanout831 u_FIR.x_reg\[6\] net831 VPWR VGND sg13g2_buf_1
XFILLER_77_328 VPWR VGND sg13g2_decap_8
Xfanout842 net843 net842 VPWR VGND sg13g2_buf_1
Xfanout853 u_FIR.x_reg\[4\] net853 VPWR VGND sg13g2_buf_1
Xfanout864 net865 net864 VPWR VGND sg13g2_buf_1
XFILLER_58_531 VPWR VGND sg13g2_fill_2
XFILLER_131_296 VPWR VGND sg13g2_decap_8
Xfanout875 net877 net875 VPWR VGND sg13g2_buf_1
XFILLER_19_907 VPWR VGND sg13g2_fill_1
X_20058_ _11099_ _11097_ _11098_ VPWR VGND sg13g2_nand2_1
Xfanout886 net888 net886 VPWR VGND sg13g2_buf_1
Xfanout897 net898 net897 VPWR VGND sg13g2_buf_1
XFILLER_73_501 VPWR VGND sg13g2_fill_2
X_11900_ VPWR _03321_ u_LMS.w\[5\]\[12\] VGND sg13g2_inv_1
X_22991__1220 VPWR VGND net1219 sg13g2_tiehi
X_12880_ _04241_ _04210_ _04240_ VPWR VGND sg13g2_xnor2_1
X_11831_ VPWR _03252_ net654 VGND sg13g2_inv_1
XFILLER_27_962 VPWR VGND sg13g2_fill_1
XFILLER_73_578 VPWR VGND sg13g2_decap_8
XFILLER_27_973 VPWR VGND sg13g2_fill_1
XFILLER_54_781 VPWR VGND sg13g2_decap_8
X_14550_ _05844_ _05835_ _05842_ VPWR VGND sg13g2_xnor2_1
X_23748_ net994 VGND VPWR _00810_ spi_wdata\[7\] clknet_3_4__leaf_spi_sclk sg13g2_dfrbpq_1
XFILLER_42_943 VPWR VGND sg13g2_decap_8
X_13501_ _04833_ _04834_ _04835_ VPWR VGND sg13g2_nor2b_1
X_14481_ net991 VPWR _05779_ VGND net489 u_FIR.sum\[5\]\[0\] sg13g2_o21ai_1
X_23679_ net1024 VGND VPWR _00741_ u_debug_unit.mon_w6_sync\[3\] clknet_leaf_21_clkA
+ sg13g2_dfrbpq_1
XFILLER_41_475 VPWR VGND sg13g2_fill_1
X_16220_ _07457_ net818 _07456_ VPWR VGND sg13g2_nand2_1
X_13432_ _04773_ _04746_ _04771_ VPWR VGND sg13g2_xnor2_1
XFILLER_9_137 VPWR VGND sg13g2_fill_2
XFILLER_42_40 VPWR VGND sg13g2_decap_8
XFILLER_41_497 VPWR VGND sg13g2_fill_1
XFILLER_42_51 VPWR VGND sg13g2_fill_1
X_16151_ _07389_ _07386_ _07390_ VPWR VGND sg13g2_nor2b_1
X_13363_ VGND VPWR net538 _04705_ _00092_ _04706_ sg13g2_a21oi_1
X_15102_ _06353_ _06362_ _06375_ VPWR VGND sg13g2_and2_1
X_12314_ _03694_ _03686_ _03693_ VPWR VGND sg13g2_nand2_1
X_16082_ _07323_ _07290_ _07322_ VPWR VGND sg13g2_xnor2_1
X_13294_ VGND VPWR _04639_ u_FIR.w\[6\]\[2\] net743 sg13g2_or2_1
XFILLER_108_772 VPWR VGND sg13g2_decap_4
X_19910_ _10951_ net629 net154 VPWR VGND sg13g2_nand2_1
X_15033_ VGND VPWR net484 _06307_ _00160_ _06308_ sg13g2_a21oi_1
X_12245_ _03627_ _03598_ _03625_ VPWR VGND sg13g2_nand2_1
X_19841_ _10895_ _10842_ _10844_ VPWR VGND sg13g2_xnor2_1
X_12176_ net945 u_spi_slave.rx_shift\[6\] _00012_ VPWR VGND sg13g2_nor2b_1
XFILLER_96_615 VPWR VGND sg13g2_decap_4
XFILLER_3_56 VPWR VGND sg13g2_decap_8
XFILLER_111_959 VPWR VGND sg13g2_fill_1
X_19772_ _10836_ u_LMS.w\[4\]\[20\] net65 VPWR VGND sg13g2_nand2_1
X_16984_ _08140_ _08138_ _08139_ VPWR VGND sg13g2_nand2b_1
XFILLER_110_447 VPWR VGND sg13g2_decap_8
X_18723_ _09790_ VPWR _09810_ VGND _09787_ _09791_ sg13g2_o21ai_1
X_15935_ _07180_ _07165_ _07178_ VPWR VGND sg13g2_xnor2_1
XFILLER_49_553 VPWR VGND sg13g2_fill_2
XFILLER_3_1007 VPWR VGND sg13g2_decap_8
X_18654_ net354 VPWR _09746_ VGND u_LMS.w\[2\]\[7\] net370 sg13g2_o21ai_1
XFILLER_76_383 VPWR VGND sg13g2_fill_1
X_15866_ _07085_ _07113_ _07114_ VPWR VGND sg13g2_nor2b_1
XFILLER_37_748 VPWR VGND sg13g2_decap_8
XFILLER_92_854 VPWR VGND sg13g2_decap_4
XFILLER_64_545 VPWR VGND sg13g2_fill_2
XFILLER_18_940 VPWR VGND sg13g2_fill_1
X_17605_ _08734_ VPWR _08738_ VGND _08735_ _08737_ sg13g2_o21ai_1
X_14817_ _06104_ u_FIR.sum\[4\]\[11\] net397 VPWR VGND sg13g2_xnor2_1
X_18585_ _09691_ net33 net36 _09692_ VPWR VGND sg13g2_a21o_1
X_15797_ _07016_ _07046_ _07047_ VPWR VGND sg13g2_nor2_1
XFILLER_91_386 VPWR VGND sg13g2_fill_1
X_23701__1510 VPWR VGND net1509 sg13g2_tiehi
X_17536_ _08650_ _08667_ _08648_ _08669_ VPWR VGND sg13g2_nand3_1
X_14748_ _06037_ _06028_ _06035_ VPWR VGND sg13g2_xnor2_1
XFILLER_32_420 VPWR VGND sg13g2_fill_1
XFILLER_32_431 VPWR VGND sg13g2_decap_4
X_23416__1101 VPWR VGND net1100 sg13g2_tiehi
X_17467_ _08600_ net81 _08598_ VPWR VGND sg13g2_nand2b_1
X_14679_ _05948_ VPWR _05969_ VGND _05949_ _05957_ sg13g2_o21ai_1
XFILLER_60_784 VPWR VGND sg13g2_fill_2
XFILLER_32_486 VPWR VGND sg13g2_decap_8
X_19206_ _10288_ net309 u_LMS.w\[3\]\[17\] coeff_force_packed\[26\] net560 VPWR VGND
+ sg13g2_a22oi_1
X_16418_ _07648_ u_FIR.sum\[7\]\[16\] net388 VPWR VGND sg13g2_nand2_1
XFILLER_20_637 VPWR VGND sg13g2_fill_2
X_17398_ _08483_ VPWR _08543_ VGND _08482_ _08485_ sg13g2_o21ai_1
X_19137_ _10224_ _03329_ _10187_ VPWR VGND sg13g2_nand2_1
X_16349_ _07568_ VPWR _07582_ VGND net271 _07566_ sg13g2_o21ai_1
XFILLER_121_1045 VPWR VGND sg13g2_decap_8
XFILLER_66_0 VPWR VGND sg13g2_decap_8
X_19068_ VGND VPWR net653 net158 _10155_ _10154_ sg13g2_a21oi_1
X_18019_ _09140_ _09085_ _09141_ VPWR VGND sg13g2_xor2_1
X_21030_ _01668_ net2062 _01631_ VPWR VGND sg13g2_xnor2_1
Xfanout105 net105 _07975_ VPWR VGND sg13g2_buf_4
Xfanout116 _01781_ net116 VPWR VGND sg13g2_buf_1
XFILLER_99_475 VPWR VGND sg13g2_fill_1
XFILLER_101_403 VPWR VGND sg13g2_decap_4
Xfanout127 net127 net128 VPWR VGND sg13g2_buf_4
Xfanout138 _07960_ net138 VPWR VGND sg13g2_buf_8
XFILLER_102_948 VPWR VGND sg13g2_fill_1
Xfanout149 net150 net149 VPWR VGND sg13g2_buf_1
XFILLER_113_285 VPWR VGND sg13g2_fill_2
XFILLER_86_136 VPWR VGND sg13g2_fill_2
XFILLER_47_29 VPWR VGND sg13g2_decap_4
XFILLER_41_1013 VPWR VGND sg13g2_decap_8
X_22981_ net1019 VGND VPWR _00043_ u_spi_slave.tx_shift\[11\] net1631 sg13g2_dfrbpq_1
XFILLER_67_361 VPWR VGND sg13g2_decap_4
XFILLER_28_715 VPWR VGND sg13g2_decap_4
XFILLER_95_681 VPWR VGND sg13g2_decap_8
XFILLER_55_523 VPWR VGND sg13g2_decap_8
XFILLER_28_737 VPWR VGND sg13g2_fill_2
X_21932_ _02525_ _02524_ _02526_ VPWR VGND sg13g2_xor2_1
XFILLER_67_394 VPWR VGND sg13g2_decap_8
XFILLER_103_57 VPWR VGND sg13g2_decap_8
X_21863_ _02455_ VPWR _02457_ VGND _02452_ _02454_ sg13g2_o21ai_1
XFILLER_42_217 VPWR VGND sg13g2_fill_2
X_23602_ net1015 VGND VPWR _00664_ coeff_force_packed\[42\] clknet_leaf_19_clkA sg13g2_dfrbpq_1
X_20814_ _01452_ net2071 _01454_ VPWR VGND sg13g2_nor2_1
X_21794_ _02367_ VPWR _02388_ VGND _02364_ _02368_ sg13g2_o21ai_1
X_23533_ net987 VGND VPWR _00595_ u_debug_unit.sw_reset\[3\] clknet_leaf_54_clkA sg13g2_dfrbpq_1
X_20745_ _01385_ _01383_ _01384_ VPWR VGND sg13g2_xnor2_1
X_20676_ _01316_ _01312_ _01315_ VPWR VGND sg13g2_nand2_1
X_23464_ net1539 VGND VPWR _00526_ u_LMS.x_r\[4\]\[7\] clknet_leaf_1_clkA sg13g2_dfrbpq_1
X_22415_ net948 VPWR _02957_ VGND net431 net656 sg13g2_o21ai_1
X_23395_ net1163 VGND VPWR _00457_ u_LMS.w\[7\]\[5\] clknet_leaf_8_clkA sg13g2_dfrbpq_1
XFILLER_109_547 VPWR VGND sg13g2_fill_1
XFILLER_128_21 VPWR VGND sg13g2_decap_8
X_22346_ VGND VPWR net47 _02919_ _02920_ net6 sg13g2_a21oi_1
X_22277_ net2171 VPWR _02866_ VGND _02824_ _02865_ sg13g2_o21ai_1
XFILLER_128_98 VPWR VGND sg13g2_decap_8
X_12030_ _03447_ net285 sys_enable_bus\[7\] net295 u_debug_unit.force_w5\[7\] VPWR
+ VGND sg13g2_a22oi_1
X_21228_ _01844_ _01755_ _01845_ VPWR VGND sg13g2_xor2_1
XFILLER_132_550 VPWR VGND sg13g2_decap_8
XFILLER_104_252 VPWR VGND sg13g2_fill_2
X_21159_ _01768_ _01775_ _01776_ VPWR VGND sg13g2_and2_1
XFILLER_59_840 VPWR VGND sg13g2_fill_1
Xfanout650 u_LMS.x_r\[4\]\[1\] net650 VPWR VGND sg13g2_buf_1
Xfanout661 u_LMS.x_r\[3\]\[3\] net661 VPWR VGND sg13g2_buf_1
Xfanout672 net673 net672 VPWR VGND sg13g2_buf_1
Xfanout683 u_LMS.x_r\[2\]\[0\] net683 VPWR VGND sg13g2_buf_1
X_13981_ _05297_ net763 net905 VPWR VGND sg13g2_nand2_1
XFILLER_19_704 VPWR VGND sg13g2_decap_4
Xfanout694 net695 net694 VPWR VGND sg13g2_buf_1
XFILLER_59_895 VPWR VGND sg13g2_decap_8
X_15720_ _06931_ _06933_ _06971_ _06972_ VPWR VGND sg13g2_nor3_1
XFILLER_19_737 VPWR VGND sg13g2_fill_2
X_12932_ _04255_ _04290_ _04291_ VPWR VGND sg13g2_nor2_1
XFILLER_74_832 VPWR VGND sg13g2_fill_2
X_15651_ net875 _06903_ net785 _06904_ VPWR VGND sg13g2_nand3_1
X_23118__1613 VPWR VGND net1612 sg13g2_tiehi
X_12863_ _04224_ _04223_ _04219_ VPWR VGND sg13g2_nand2b_1
XFILLER_74_887 VPWR VGND sg13g2_decap_4
XFILLER_61_504 VPWR VGND sg13g2_fill_1
XFILLER_73_375 VPWR VGND sg13g2_decap_4
XFILLER_34_729 VPWR VGND sg13g2_decap_4
XFILLER_33_217 VPWR VGND sg13g2_decap_8
X_14602_ _05894_ _05893_ _05855_ VPWR VGND sg13g2_nand2b_1
X_18370_ net682 net182 net680 _09480_ VPWR VGND net217 sg13g2_nand4_1
X_11814_ VPWR _03235_ net622 VGND sg13g2_inv_1
XFILLER_33_228 VPWR VGND sg13g2_fill_1
X_15582_ _06835_ _06828_ _06837_ VPWR VGND sg13g2_xor2_1
XFILLER_15_943 VPWR VGND sg13g2_fill_1
X_12794_ _04157_ _04153_ _04156_ VPWR VGND sg13g2_xnor2_1
X_17321_ _08477_ u_LMS.w\[0\]\[21\] net72 VPWR VGND sg13g2_nand2_1
X_14533_ _05827_ net772 net862 VPWR VGND sg13g2_nand2_1
XFILLER_41_250 VPWR VGND sg13g2_fill_1
XFILLER_105_1007 VPWR VGND sg13g2_fill_2
X_17252_ _08408_ _08373_ _08374_ VPWR VGND sg13g2_xnor2_1
XFILLER_30_946 VPWR VGND sg13g2_fill_1
X_14464_ net1006 VPWR _05764_ VGND net512 u_FIR.sum\[4\]\[17\] sg13g2_o21ai_1
X_16203_ VGND VPWR net475 _07439_ _00198_ _07440_ sg13g2_a21oi_1
X_13415_ _04757_ _04740_ _04755_ VPWR VGND sg13g2_xnor2_1
XFILLER_128_823 VPWR VGND sg13g2_decap_4
XFILLER_127_300 VPWR VGND sg13g2_decap_8
X_17183_ _08339_ _08329_ _08338_ VPWR VGND sg13g2_nand2_1
X_14395_ _05698_ u_FIR.sum\[3\]\[14\] net399 VPWR VGND sg13g2_nand2_1
X_16134_ _07373_ _07372_ _07368_ VPWR VGND sg13g2_nand2b_1
X_13346_ _04690_ _04678_ _04689_ VPWR VGND sg13g2_xnor2_1
XFILLER_127_366 VPWR VGND sg13g2_fill_2
XFILLER_5_151 VPWR VGND sg13g2_decap_8
X_16065_ _07304_ _07297_ _07306_ VPWR VGND sg13g2_xor2_1
X_13277_ _04615_ _04622_ _04623_ VPWR VGND sg13g2_nor2b_1
XFILLER_5_173 VPWR VGND sg13g2_decap_4
X_15016_ _06290_ _06279_ _06292_ VPWR VGND sg13g2_xor2_1
X_12228_ _03611_ net725 net881 VPWR VGND sg13g2_nand2_1
X_23461__1549 VPWR VGND net1548 sg13g2_tiehi
XFILLER_69_626 VPWR VGND sg13g2_decap_4
XFILLER_38_4 VPWR VGND sg13g2_fill_1
X_19824_ net2134 VPWR _10881_ VGND _03326_ _10830_ sg13g2_o21ai_1
XFILLER_2_880 VPWR VGND sg13g2_decap_8
X_12159_ _03568_ net290 coeff_force_packed\[0\] _03404_ u_debug_unit.mon_w7_sync\[0\]
+ VPWR VGND sg13g2_a22oi_1
XFILLER_97_979 VPWR VGND sg13g2_fill_2
XFILLER_110_244 VPWR VGND sg13g2_fill_1
XFILLER_96_467 VPWR VGND sg13g2_decap_8
X_19755_ _10815_ VPWR _10819_ VGND _10422_ _10818_ sg13g2_o21ai_1
X_16967_ _08116_ VPWR _08123_ VGND _08078_ _08114_ sg13g2_o21ai_1
X_18706_ _09793_ _09787_ _09792_ VPWR VGND sg13g2_xnor2_1
X_15918_ net1001 VPWR _07164_ VGND net498 u_FIR.sum\[7\]\[14\] sg13g2_o21ai_1
X_19686_ _03327_ _10749_ _10750_ VPWR VGND sg13g2_nor2_1
X_16898_ _08054_ _08053_ _08032_ VPWR VGND sg13g2_nand2b_1
XFILLER_76_180 VPWR VGND sg13g2_fill_1
XFILLER_92_651 VPWR VGND sg13g2_fill_1
XFILLER_80_802 VPWR VGND sg13g2_fill_1
XFILLER_65_876 VPWR VGND sg13g2_fill_1
X_18637_ VGND VPWR net56 _09732_ _09733_ net32 sg13g2_a21oi_1
X_15849_ _07097_ _07096_ _07090_ VPWR VGND sg13g2_nand2b_1
XFILLER_18_770 VPWR VGND sg13g2_decap_4
XFILLER_91_172 VPWR VGND sg13g2_decap_4
X_18568_ _09676_ _09677_ _09675_ _09678_ VPWR VGND sg13g2_nand3_1
XFILLER_21_902 VPWR VGND sg13g2_fill_2
X_17519_ _08642_ VPWR _08652_ VGND _08609_ _08643_ sg13g2_o21ai_1
X_18499_ _09609_ _09538_ _09539_ VPWR VGND sg13g2_xnor2_1
X_20530_ _01170_ _01169_ _01164_ VPWR VGND sg13g2_nand2b_1
XFILLER_21_979 VPWR VGND sg13g2_fill_2
X_20461_ _01113_ _01065_ _01112_ VPWR VGND sg13g2_xnor2_1
X_22200_ _02780_ _02793_ _02794_ VPWR VGND sg13g2_nor2_1
X_23180_ net1515 VGND VPWR _00242_ u_FIR.w\[3\]\[4\] clknet_leaf_39_clkA sg13g2_dfrbpq_1
X_20392_ _01052_ VPWR _01055_ VGND _03318_ net75 sg13g2_o21ai_1
XFILLER_118_366 VPWR VGND sg13g2_decap_8
X_22131_ _02723_ _02724_ _02725_ VPWR VGND sg13g2_and2_1
X_22062_ _02656_ net586 net203 VPWR VGND sg13g2_nand2_1
XFILLER_0_806 VPWR VGND sg13g2_decap_8
XFILLER_88_913 VPWR VGND sg13g2_fill_2
X_21013_ _01652_ _01648_ _01651_ _01653_ VGND VPWR _01646_ sg13g2_nor4_2
XFILLER_102_734 VPWR VGND sg13g2_decap_8
XFILLER_102_745 VPWR VGND sg13g2_fill_1
XFILLER_75_607 VPWR VGND sg13g2_fill_2
XFILLER_114_23 VPWR VGND sg13g2_fill_1
XFILLER_74_106 VPWR VGND sg13g2_fill_1
XFILLER_68_670 VPWR VGND sg13g2_decap_4
XFILLER_101_277 VPWR VGND sg13g2_fill_1
XFILLER_68_681 VPWR VGND sg13g2_fill_2
X_22964_ u_spi_slave.rd_toggle _00795_ VPWR VGND sg13g2_buf_1
XFILLER_114_78 VPWR VGND sg13g2_fill_2
XFILLER_74_49 VPWR VGND sg13g2_decap_4
X_21915_ _02502_ VPWR _02509_ VGND _02468_ _02500_ sg13g2_o21ai_1
XFILLER_28_578 VPWR VGND sg13g2_decap_8
XFILLER_43_504 VPWR VGND sg13g2_fill_1
X_22895_ _03176_ net297 u_FIR.x\[4\] net298 u_s2p_input.reg_sh\[3\] VPWR VGND sg13g2_a22oi_1
X_21846_ _02440_ _02437_ _02438_ VPWR VGND sg13g2_xnor2_1
XFILLER_70_345 VPWR VGND sg13g2_fill_1
XFILLER_24_740 VPWR VGND sg13g2_fill_1
XFILLER_130_77 VPWR VGND sg13g2_decap_8
XFILLER_30_209 VPWR VGND sg13g2_fill_2
X_21777_ _02363_ _02370_ _02371_ VPWR VGND sg13g2_and2_1
X_23516_ net1352 VGND VPWR _00578_ u_LMS.count\[19\] clknet_leaf_60_clkA sg13g2_dfrbpq_1
X_20728_ VPWR _01368_ _01367_ VGND sg13g2_inv_1
XFILLER_8_906 VPWR VGND sg13g2_fill_2
XFILLER_23_64 VPWR VGND sg13g2_fill_1
XFILLER_109_300 VPWR VGND sg13g2_decap_4
X_23447_ net1590 VGND VPWR _00509_ u_LMS.x_r\[2\]\[6\] clknet_leaf_65_clkA sg13g2_dfrbpq_1
X_20659_ _01299_ _01296_ _01297_ VPWR VGND sg13g2_xnor2_1
X_13200_ _04517_ _04547_ _04548_ VPWR VGND sg13g2_and2_1
XFILLER_20_990 VPWR VGND sg13g2_fill_1
X_14180_ _05489_ net760 net851 VPWR VGND sg13g2_nand2_1
X_23378_ net1214 VGND VPWR _00440_ u_LMS.w\[6\]\[11\] clknet_leaf_10_clkA sg13g2_dfrbpq_1
X_13131_ _04480_ net741 net883 VPWR VGND sg13g2_nand2_1
XFILLER_3_611 VPWR VGND sg13g2_decap_4
X_22329_ _02792_ _02791_ _02907_ VPWR VGND sg13g2_xor2_1
XFILLER_87_1057 VPWR VGND sg13g2_decap_4
X_13062_ VGND VPWR _04382_ _04396_ _04413_ _04395_ sg13g2_a21oi_1
XFILLER_2_154 VPWR VGND sg13g2_fill_1
X_12013_ _03417_ net326 _03430_ VPWR VGND sg13g2_nor2_1
XFILLER_79_946 VPWR VGND sg13g2_decap_4
XFILLER_3_699 VPWR VGND sg13g2_decap_4
X_17870_ _08942_ _08935_ _09003_ VPWR VGND sg13g2_xor2_1
XFILLER_78_423 VPWR VGND sg13g2_decap_8
XFILLER_132_391 VPWR VGND sg13g2_decap_8
X_16821_ _07977_ net702 net160 VPWR VGND sg13g2_nand2_1
XFILLER_66_618 VPWR VGND sg13g2_decap_8
Xfanout480 net481 net480 VPWR VGND sg13g2_buf_1
Xclkbuf_leaf_51_clkA clknet_4_6_0_clkA clknet_leaf_51_clkA VPWR VGND sg13g2_buf_8
Xfanout491 net494 net491 VPWR VGND sg13g2_buf_1
XFILLER_120_597 VPWR VGND sg13g2_decap_8
X_19540_ _10604_ _10600_ _10603_ VPWR VGND sg13g2_nand2_1
X_16752_ VPWR _07908_ _07907_ VGND sg13g2_inv_1
X_13964_ _05279_ VPWR _05282_ VGND _05267_ _05276_ sg13g2_o21ai_1
XFILLER_46_320 VPWR VGND sg13g2_decap_8
XFILLER_0_35 VPWR VGND sg13g2_decap_8
X_15703_ _06948_ _06954_ _06955_ VPWR VGND sg13g2_nor2b_1
X_12915_ _04275_ _04250_ _04274_ VPWR VGND sg13g2_xnor2_1
XFILLER_62_802 VPWR VGND sg13g2_fill_1
X_19471_ net208 _10534_ net643 _10535_ VPWR VGND sg13g2_nand3_1
X_16683_ u_LMS.w\[7\]\[24\] _07852_ _07853_ VPWR VGND sg13g2_nor2_1
X_13895_ _05217_ _05216_ _05195_ VPWR VGND sg13g2_nand2b_1
XFILLER_47_898 VPWR VGND sg13g2_fill_2
X_18422_ _09532_ net683 net253 VPWR VGND sg13g2_nand2_1
X_15634_ _06886_ _06860_ _06888_ VPWR VGND sg13g2_xor2_1
X_12846_ net1039 VPWR _04208_ VGND net545 u_FIR.sum\[1\]\[9\] sg13g2_o21ai_1
XFILLER_61_356 VPWR VGND sg13g2_decap_4
X_18353_ _03265_ _03266_ net176 net159 _09463_ VPWR VGND sg13g2_nor4_1
X_15565_ net973 VPWR _06821_ VGND net477 u_FIR.sum\[7\]\[4\] sg13g2_o21ai_1
XFILLER_61_378 VPWR VGND sg13g2_decap_8
XFILLER_21_209 VPWR VGND sg13g2_fill_1
X_12777_ _04138_ _04139_ _04140_ VPWR VGND sg13g2_and2_1
XFILLER_61_389 VPWR VGND sg13g2_fill_1
X_17304_ _08460_ _03356_ _08413_ VPWR VGND sg13g2_nand2_1
X_14516_ _05811_ net770 net890 VPWR VGND sg13g2_nand2_1
X_18284_ _09394_ net676 net217 VPWR VGND sg13g2_nand2_1
X_15496_ _06755_ _06753_ _06754_ VPWR VGND sg13g2_xnor2_1
XFILLER_14_294 VPWR VGND sg13g2_fill_2
XFILLER_9_88 VPWR VGND sg13g2_fill_1
X_17235_ _08391_ _08385_ _08390_ VPWR VGND sg13g2_xnor2_1
XFILLER_30_776 VPWR VGND sg13g2_fill_1
X_14447_ VGND VPWR _05746_ _05747_ _05748_ net412 sg13g2_a21oi_1
XFILLER_128_653 VPWR VGND sg13g2_decap_8
X_17166_ _08309_ _08321_ _08322_ VPWR VGND sg13g2_nor2_1
X_14378_ _05682_ _05681_ _05650_ VPWR VGND sg13g2_nand2b_1
XFILLER_127_141 VPWR VGND sg13g2_decap_8
X_16117_ _07357_ _07327_ _07356_ VPWR VGND sg13g2_xnor2_1
XFILLER_128_697 VPWR VGND sg13g2_decap_8
X_13329_ VGND VPWR net538 _04672_ _00091_ _04673_ sg13g2_a21oi_1
X_17097_ _08179_ _08173_ _08253_ VPWR VGND sg13g2_xor2_1
X_16048_ _07289_ _07287_ _07288_ _07270_ _07238_ VPWR VGND sg13g2_a22oi_1
XFILLER_131_829 VPWR VGND sg13g2_fill_2
X_19807_ _10868_ net310 u_LMS.w\[4\]\[15\] coeff_force_packed\[31\] net562 VPWR VGND
+ sg13g2_a22oi_1
X_23182__1513 VPWR VGND net1512 sg13g2_tiehi
XFILLER_29_0 VPWR VGND sg13g2_fill_2
X_23210__1464 VPWR VGND net1463 sg13g2_tiehi
XFILLER_97_798 VPWR VGND sg13g2_fill_2
X_17999_ _09125_ _09070_ _09124_ VPWR VGND sg13g2_xnor2_1
XFILLER_84_426 VPWR VGND sg13g2_decap_4
X_19738_ _10802_ u_LMS.w\[4\]\[13\] _10751_ VPWR VGND sg13g2_xnor2_1
XFILLER_84_459 VPWR VGND sg13g2_decap_4
XFILLER_65_640 VPWR VGND sg13g2_decap_8
X_19669_ _10730_ _10732_ _10733_ VPWR VGND sg13g2_and2_1
XFILLER_92_470 VPWR VGND sg13g2_fill_2
XFILLER_65_695 VPWR VGND sg13g2_fill_2
X_21700_ _02304_ net377 _02251_ VPWR VGND sg13g2_nand2_2
XFILLER_53_846 VPWR VGND sg13g2_decap_8
X_22680_ coeff_force_packed\[48\] net461 _03067_ _00670_ VPWR VGND sg13g2_mux2_1
X_21631_ _02246_ _02247_ net2154 _02248_ VPWR VGND sg13g2_nand3_1
XFILLER_127_1051 VPWR VGND sg13g2_decap_8
X_21562_ _03299_ _02178_ _02179_ VPWR VGND sg13g2_nor2_1
XFILLER_21_743 VPWR VGND sg13g2_fill_2
XFILLER_21_754 VPWR VGND sg13g2_fill_1
XFILLER_20_242 VPWR VGND sg13g2_fill_2
X_23301_ net1300 VGND VPWR _00363_ u_LMS.w\[3\]\[3\] clknet_leaf_63_clkA sg13g2_dfrbpq_1
XFILLER_60_29 VPWR VGND sg13g2_fill_2
X_20513_ _01150_ _01152_ _01153_ VPWR VGND sg13g2_nor2_1
X_21493_ VPWR _02110_ _02109_ VGND sg13g2_inv_1
X_20444_ VGND VPWR _01098_ _01099_ _00402_ net940 sg13g2_a21oi_1
X_23232_ net1423 VGND VPWR _00294_ u_LMS.w\[0\]\[3\] clknet_leaf_12_clkA sg13g2_dfrbpq_1
X_20375_ _01038_ _01037_ _00981_ VPWR VGND sg13g2_nand2b_1
X_23163_ net1544 VGND VPWR _00225_ u_FIR.w\[1\]\[1\] clknet_leaf_48_clkA sg13g2_dfrbpq_1
XFILLER_107_7 VPWR VGND sg13g2_fill_2
X_22114_ _02600_ _02578_ _02599_ _02708_ VPWR VGND sg13g2_a21o_1
X_23094_ net1065 VGND VPWR _00156_ u_FIR.sum\[5\]\[18\] clknet_leaf_41_clkA sg13g2_dfrbpq_1
XFILLER_121_317 VPWR VGND sg13g2_fill_1
X_22045_ _02638_ VPWR _02639_ VGND _02610_ _02636_ sg13g2_o21ai_1
XFILLER_88_743 VPWR VGND sg13g2_fill_1
XFILLER_102_542 VPWR VGND sg13g2_decap_8
XFILLER_130_873 VPWR VGND sg13g2_decap_4
XFILLER_125_77 VPWR VGND sg13g2_decap_4
XFILLER_69_990 VPWR VGND sg13g2_decap_8
XFILLER_75_437 VPWR VGND sg13g2_fill_2
XFILLER_28_320 VPWR VGND sg13g2_fill_2
XFILLER_28_331 VPWR VGND sg13g2_fill_2
XFILLER_28_342 VPWR VGND sg13g2_decap_8
X_23014__1186 VPWR VGND net1185 sg13g2_tiehi
X_22947_ net470 u_spi_slave.rx_shift\[0\] _03575_ _00804_ VPWR VGND sg13g2_mux2_1
XFILLER_83_470 VPWR VGND sg13g2_fill_1
XFILLER_18_97 VPWR VGND sg13g2_fill_1
X_12700_ VGND VPWR _04065_ _04064_ _04025_ sg13g2_or2_1
XFILLER_83_492 VPWR VGND sg13g2_fill_2
X_13680_ net864 _05007_ net748 _05008_ VPWR VGND sg13g2_nand3_1
X_22878_ u_p2s_output.reg_cnt\[1\] _03164_ _03167_ VPWR VGND sg13g2_and2_1
XFILLER_70_131 VPWR VGND sg13g2_fill_1
XFILLER_44_879 VPWR VGND sg13g2_fill_1
X_12631_ _03998_ _03992_ _03996_ VPWR VGND sg13g2_xnor2_1
X_21829_ _02403_ _02401_ _02420_ _02423_ VPWR VGND sg13g2_a21o_1
X_15350_ VPWR _06617_ _06616_ VGND sg13g2_inv_1
X_12562_ _03921_ _03861_ _03934_ VPWR VGND sg13g2_xor2_1
XFILLER_8_703 VPWR VGND sg13g2_fill_2
X_14301_ _05607_ u_FIR.w\[4\]\[6\] net838 VPWR VGND sg13g2_nand2b_1
XFILLER_7_202 VPWR VGND sg13g2_decap_4
X_15281_ _06549_ net250 _06550_ VPWR VGND sg13g2_xor2_1
X_12493_ net827 _03867_ net719 _03868_ VPWR VGND sg13g2_nand3_1
XFILLER_12_798 VPWR VGND sg13g2_decap_8
X_17020_ VGND VPWR _08176_ _08175_ _08174_ sg13g2_or2_1
X_14232_ VGND VPWR net822 _05538_ _05540_ _05537_ sg13g2_a21oi_1
XFILLER_7_257 VPWR VGND sg13g2_fill_1
XFILLER_50_62 VPWR VGND sg13g2_fill_1
X_14163_ _05473_ _05468_ _05471_ VPWR VGND sg13g2_xnor2_1
X_13114_ _04464_ _04463_ _04425_ VPWR VGND sg13g2_nand2b_1
XFILLER_125_678 VPWR VGND sg13g2_fill_2
X_18971_ _10049_ _10057_ _10058_ VPWR VGND sg13g2_nor2_1
X_14094_ _05404_ _05405_ _00124_ VPWR VGND sg13g2_nor2_1
XFILLER_79_721 VPWR VGND sg13g2_fill_2
XFILLER_3_485 VPWR VGND sg13g2_decap_8
X_17922_ _09055_ _09053_ _09054_ VPWR VGND sg13g2_nand2_1
X_13045_ _04397_ _04381_ _04396_ VPWR VGND sg13g2_xnor2_1
XFILLER_124_199 VPWR VGND sg13g2_fill_2
XFILLER_78_220 VPWR VGND sg13g2_decap_8
XFILLER_78_231 VPWR VGND sg13g2_fill_1
XFILLER_121_840 VPWR VGND sg13g2_decap_4
XFILLER_59_93 VPWR VGND sg13g2_fill_2
XFILLER_22_7 VPWR VGND sg13g2_fill_2
X_17853_ _08986_ _08967_ _08968_ VPWR VGND sg13g2_xnor2_1
XFILLER_120_372 VPWR VGND sg13g2_decap_8
X_16804_ _07960_ _07957_ _07955_ VPWR VGND sg13g2_xnor2_1
XFILLER_94_757 VPWR VGND sg13g2_fill_1
X_17784_ net206 net697 _08888_ _08917_ VPWR VGND sg13g2_a21o_1
X_14996_ VPWR _06273_ _06272_ VGND sg13g2_inv_1
XFILLER_82_908 VPWR VGND sg13g2_decap_8
XFILLER_81_407 VPWR VGND sg13g2_fill_2
X_19523_ _10573_ VPWR _10587_ VGND _10570_ _10575_ sg13g2_o21ai_1
XFILLER_75_70 VPWR VGND sg13g2_fill_1
X_16735_ u_FIR.sum\[8\]\[18\] u_FIR.sum\[8\]\[17\] u_FIR.sum\[8\]\[16\] u_FIR.sum\[8\]\[15\]
+ _07891_ VPWR VGND sg13g2_and4_1
X_13947_ _05190_ _05257_ _05266_ VPWR VGND sg13g2_nor2_1
XFILLER_81_418 VPWR VGND sg13g2_fill_1
XFILLER_93_289 VPWR VGND sg13g2_decap_4
XFILLER_75_993 VPWR VGND sg13g2_fill_1
XFILLER_75_92 VPWR VGND sg13g2_fill_2
X_19454_ _10518_ _10515_ _10516_ VPWR VGND sg13g2_xnor2_1
X_16666_ VGND VPWR u_LMS.w\[6\]\[15\] _07832_ _07840_ _07833_ sg13g2_a21oi_1
XFILLER_35_857 VPWR VGND sg13g2_fill_1
X_13878_ _05201_ _05194_ _05199_ VPWR VGND sg13g2_xnor2_1
XFILLER_61_131 VPWR VGND sg13g2_decap_8
XFILLER_62_665 VPWR VGND sg13g2_fill_1
X_18405_ _09508_ VPWR _09515_ VGND _09502_ _09509_ sg13g2_o21ai_1
X_15617_ VGND VPWR _06871_ _06869_ _06831_ sg13g2_or2_1
XFILLER_22_507 VPWR VGND sg13g2_decap_8
X_12829_ VPWR _04191_ _04190_ VGND sg13g2_inv_1
XFILLER_62_687 VPWR VGND sg13g2_decap_8
XFILLER_61_164 VPWR VGND sg13g2_fill_2
XFILLER_22_518 VPWR VGND sg13g2_fill_1
X_19385_ _10449_ _10446_ _10447_ VPWR VGND sg13g2_xnor2_1
X_16597_ u_LMS.w\[4\]\[19\] u_LMS.w\[4\]\[18\] u_LMS.w\[4\]\[20\] _07788_ VPWR VGND
+ sg13g2_nand3_1
XFILLER_22_529 VPWR VGND sg13g2_fill_2
XFILLER_61_175 VPWR VGND sg13g2_decap_8
XFILLER_43_890 VPWR VGND sg13g2_fill_1