* NGSPICE file created from top.ext - technology: ihp-sg13g2

* Black-box entry subcircuit for sg13g2_xnor2_1 abstract view
.subckt sg13g2_xnor2_1 Y A B VDD VSS
.ends

* Black-box entry subcircuit for sg13g2_fill_2 abstract view
.subckt sg13g2_fill_2 VDD VSS
.ends

* Black-box entry subcircuit for sg13g2_fill_1 abstract view
.subckt sg13g2_fill_1 VDD VSS
.ends

* Black-box entry subcircuit for sg13g2_decap_8 abstract view
.subckt sg13g2_decap_8 VDD VSS
.ends

* Black-box entry subcircuit for sg13g2_nand2b_1 abstract view
.subckt sg13g2_nand2b_1 Y B A_N VDD VSS
.ends

* Black-box entry subcircuit for sg13g2_a21o_1 abstract view
.subckt sg13g2_a21o_1 A2 A1 B1 X VDD VSS
.ends

* Black-box entry subcircuit for sg13g2_decap_4 abstract view
.subckt sg13g2_decap_4 VDD VSS
.ends

* Black-box entry subcircuit for sg13g2_xor2_1 abstract view
.subckt sg13g2_xor2_1 B A X VDD VSS
.ends

* Black-box entry subcircuit for sg13g2_tiehi abstract view
.subckt sg13g2_tiehi VDD VSS L_HI
.ends

* Black-box entry subcircuit for sg13g2_inv_1 abstract view
.subckt sg13g2_inv_1 VDD Y A VSS
.ends

* Black-box entry subcircuit for sg13g2_dfrbpq_1 abstract view
.subckt sg13g2_dfrbpq_1 RESET_B VSS VDD D Q CLK
.ends

* Black-box entry subcircuit for sg13g2_nand2_1 abstract view
.subckt sg13g2_nand2_1 Y A B VDD VSS
.ends

* Black-box entry subcircuit for sg13g2_o21ai_1 abstract view
.subckt sg13g2_o21ai_1 B1 VDD Y VSS A1 A2
.ends

* Black-box entry subcircuit for sg13g2_a21oi_1 abstract view
.subckt sg13g2_a21oi_1 VSS VDD A1 A2 Y B1
.ends

* Black-box entry subcircuit for sg13g2_buf_1 abstract view
.subckt sg13g2_buf_1 A X VDD VSS
.ends

* Black-box entry subcircuit for sg13g2_nor2_1 abstract view
.subckt sg13g2_nor2_1 A B Y VDD VSS
.ends

* Black-box entry subcircuit for sg13g2_nor2b_1 abstract view
.subckt sg13g2_nor2b_1 A B_N Y VDD VSS
.ends

* Black-box entry subcircuit for sg13g2_and2_1 abstract view
.subckt sg13g2_and2_1 A B X VDD VSS
.ends

* Black-box entry subcircuit for sg13g2_or2_1 abstract view
.subckt sg13g2_or2_1 VSS VDD X B A
.ends

* Black-box entry subcircuit for sg13g2_nand3_1 abstract view
.subckt sg13g2_nand3_1 B C A Y VDD VSS
.ends

* Black-box entry subcircuit for sg13g2_a22oi_1 abstract view
.subckt sg13g2_a22oi_1 Y B1 B2 A2 A1 VDD VSS
.ends

* Black-box entry subcircuit for sg13g2_nor3_1 abstract view
.subckt sg13g2_nor3_1 A B C Y VDD VSS
.ends

* Black-box entry subcircuit for sg13g2_nand4_1 abstract view
.subckt sg13g2_nand4_1 B C A Y VDD VSS D
.ends

* Black-box entry subcircuit for sg13g2_nor4_1 abstract view
.subckt sg13g2_nor4_1 A B C D Y VDD VSS
.ends

* Black-box entry subcircuit for sg13g2_buf_8 abstract view
.subckt sg13g2_buf_8 A X VDD VSS
.ends

* Black-box entry subcircuit for sg13g2_mux2_1 abstract view
.subckt sg13g2_mux2_1 A0 A1 S X VDD VSS
.ends

* Black-box entry subcircuit for sg13g2_and4_1 abstract view
.subckt sg13g2_and4_1 A B C D X VDD VSS
.ends

* Black-box entry subcircuit for sg13g2_a221oi_1 abstract view
.subckt sg13g2_a221oi_1 VDD VSS B2 C1 B1 A1 Y A2
.ends

* Black-box entry subcircuit for sg13g2_antennanp abstract view
.subckt sg13g2_antennanp VDD VSS A
.ends

* Black-box entry subcircuit for sg13g2_and3_1 abstract view
.subckt sg13g2_and3_1 X A B C VDD VSS
.ends

* Black-box entry subcircuit for sg13g2_or3_1 abstract view
.subckt sg13g2_or3_1 A B C X VDD VSS
.ends

* Black-box entry subcircuit for sg13g2_nand3b_1 abstract view
.subckt sg13g2_nand3b_1 B C Y VDD VSS A_N
.ends

* Black-box entry subcircuit for sg13g2_buf_16 abstract view
.subckt sg13g2_buf_16 X A VDD VSS
.ends

* Black-box entry subcircuit for sg13g2_inv_8 abstract view
.subckt sg13g2_inv_8 Y A VDD VSS
.ends

* Black-box entry subcircuit for sg13g2_inv_4 abstract view
.subckt sg13g2_inv_4 A Y VDD VSS
.ends

* Black-box entry subcircuit for sg13g2_inv_2 abstract view
.subckt sg13g2_inv_2 Y A VDD VSS
.ends

* Black-box entry subcircuit for sg13g2_ebufn_2 abstract view
.subckt sg13g2_ebufn_2 TE_B A Z VDD VSS
.ends

.subckt top VGND VPWR clkA reset spi_miso spi_mosi spi_sclk spi_ss_n x_serial y_serial
X_18869_ _09956_ _09949_ _09950_ VPWR VGND sg13g2_xnor2_1
XFILLER_39_255 VPWR VGND sg13g2_fill_2
XFILLER_95_884 VPWR VGND sg13g2_fill_1
XFILLER_55_726 VPWR VGND sg13g2_decap_8
X_20900_ _01540_ _01334_ _01302_ VPWR VGND sg13g2_nand2b_1
XFILLER_27_428 VPWR VGND sg13g2_fill_1
X_21880_ _02465_ _02464_ _02473_ _02474_ VPWR VGND sg13g2_a21o_1
XFILLER_94_383 VPWR VGND sg13g2_fill_1
XFILLER_39_299 VPWR VGND sg13g2_decap_8
XFILLER_54_236 VPWR VGND sg13g2_decap_8
XFILLER_82_556 VPWR VGND sg13g2_decap_4
X_20831_ _01468_ _01467_ _01471_ VPWR VGND sg13g2_xor2_1
XFILLER_42_409 VPWR VGND sg13g2_fill_1
X_23470__1530 VPWR VGND net1529 sg13g2_tiehi
X_20762_ VPWR _01402_ _01401_ VGND sg13g2_inv_1
X_23550_ net994 VGND VPWR _00612_ sys_enable_bus\[4\] clknet_leaf_39_clkA sg13g2_dfrbpq_1
XFILLER_51_932 VPWR VGND sg13g2_decap_8
XFILLER_22_100 VPWR VGND sg13g2_decap_8
XFILLER_62_291 VPWR VGND sg13g2_decap_8
XFILLER_35_1009 VPWR VGND sg13g2_decap_8
X_22501_ _03000_ net964 _03591_ VPWR VGND sg13g2_nand2_1
X_23523__1336 VPWR VGND net1335 sg13g2_tiehi
X_23481_ net1490 VGND VPWR _00543_ u_LMS.x_r\[7\]\[0\] clknet_leaf_11_clkA sg13g2_dfrbpq_1
XFILLER_22_144 VPWR VGND sg13g2_decap_8
X_20693_ _01331_ VPWR _01333_ VGND _01327_ _01332_ sg13g2_o21ai_1
XFILLER_50_475 VPWR VGND sg13g2_decap_8
XFILLER_22_166 VPWR VGND sg13g2_fill_2
X_22432_ VGND VPWR net448 _03253_ _00524_ _02965_ sg13g2_a21oi_1
X_22363_ net1018 VPWR _02931_ VGND net468 net717 sg13g2_o21ai_1
XFILLER_136_547 VPWR VGND sg13g2_decap_4
X_21314_ _01931_ _01930_ _01926_ VPWR VGND sg13g2_nand2b_1
X_22294_ net8 VPWR _02880_ VGND net7 _02879_ sg13g2_o21ai_1
XFILLER_85_1110 VPWR VGND sg13g2_decap_8
XFILLER_123_208 VPWR VGND sg13g2_decap_8
XFILLER_2_505 VPWR VGND sg13g2_decap_8
X_21245_ _01862_ _01850_ _01857_ VPWR VGND sg13g2_xnor2_1
XFILLER_11_1086 VPWR VGND sg13g2_decap_8
XFILLER_105_956 VPWR VGND sg13g2_fill_2
XFILLER_7_7 VPWR VGND sg13g2_decap_8
XFILLER_117_77 VPWR VGND sg13g2_fill_2
X_21176_ _01772_ VPWR _01793_ VGND _01769_ _01773_ sg13g2_o21ai_1
XFILLER_77_26 VPWR VGND sg13g2_decap_4
XFILLER_133_1108 VPWR VGND sg13g2_decap_8
Xfanout820 net826 net820 VPWR VGND sg13g2_buf_1
XFILLER_89_166 VPWR VGND sg13g2_decap_8
XFILLER_77_306 VPWR VGND sg13g2_decap_8
XFILLER_133_1119 VPWR VGND sg13g2_fill_1
X_20127_ _11166_ _11167_ _11168_ VPWR VGND sg13g2_nor2_1
Xfanout831 net834 net831 VPWR VGND sg13g2_buf_1
Xfanout842 net844 net842 VPWR VGND sg13g2_buf_1
Xfanout853 net855 net853 VPWR VGND sg13g2_buf_1
XFILLER_89_199 VPWR VGND sg13g2_decap_4
XFILLER_77_339 VPWR VGND sg13g2_fill_1
Xfanout864 net865 net864 VPWR VGND sg13g2_buf_1
XFILLER_133_21 VPWR VGND sg13g2_decap_8
Xfanout875 net884 net875 VPWR VGND sg13g2_buf_1
X_20058_ _11099_ _11097_ _11098_ VPWR VGND sg13g2_nand2_1
Xfanout886 net887 net886 VPWR VGND sg13g2_buf_1
XFILLER_19_918 VPWR VGND sg13g2_fill_2
Xfanout897 u_FIR.x_reg\[2\] net897 VPWR VGND sg13g2_buf_1
XFILLER_58_564 VPWR VGND sg13g2_decap_4
XFILLER_133_65 VPWR VGND sg13g2_fill_1
XFILLER_93_14 VPWR VGND sg13g2_decap_4
X_11900_ VPWR _03321_ u_LMS.w\[5\]\[12\] VGND sg13g2_inv_1
X_12880_ _04241_ _04210_ _04240_ VPWR VGND sg13g2_xnor2_1
X_22991__1231 VPWR VGND net1230 sg13g2_tiehi
XFILLER_93_69 VPWR VGND sg13g2_decap_8
X_11831_ VPWR _03252_ net665 VGND sg13g2_inv_1
XFILLER_27_962 VPWR VGND sg13g2_fill_1
XFILLER_54_770 VPWR VGND sg13g2_fill_2
XFILLER_42_910 VPWR VGND sg13g2_fill_2
XFILLER_26_63 VPWR VGND sg13g2_decap_8
XFILLER_26_461 VPWR VGND sg13g2_fill_1
XFILLER_27_995 VPWR VGND sg13g2_fill_1
X_14550_ _05844_ _05835_ _05842_ VPWR VGND sg13g2_xnor2_1
X_23748_ net1027 VGND VPWR _00810_ spi_wdata\[7\] clknet_3_7__leaf_spi_sclk sg13g2_dfrbpq_1
XFILLER_60_239 VPWR VGND sg13g2_decap_8
XFILLER_42_954 VPWR VGND sg13g2_decap_8
X_13501_ _04833_ _04834_ _04835_ VPWR VGND sg13g2_nor2b_1
X_14481_ net989 VPWR _05779_ VGND net500 u_FIR.sum\[5\]\[0\] sg13g2_o21ai_1
X_23679_ net1033 VGND VPWR _00741_ u_debug_unit.mon_w6_sync\[3\] clknet_leaf_23_clkA
+ sg13g2_dfrbpq_1
XFILLER_13_177 VPWR VGND sg13g2_fill_1
X_16220_ _07457_ net828 _07456_ VPWR VGND sg13g2_nand2_1
XFILLER_9_126 VPWR VGND sg13g2_decap_8
X_13432_ _04773_ _04746_ _04771_ VPWR VGND sg13g2_xnor2_1
XFILLER_13_199 VPWR VGND sg13g2_decap_8
XFILLER_9_148 VPWR VGND sg13g2_decap_8
XFILLER_139_341 VPWR VGND sg13g2_fill_2
XFILLER_9_159 VPWR VGND sg13g2_decap_8
XFILLER_10_862 VPWR VGND sg13g2_decap_8
X_16151_ _07389_ _07386_ _07390_ VPWR VGND sg13g2_nor2b_1
X_13363_ VGND VPWR net562 _04705_ _00092_ _04706_ sg13g2_a21oi_1
X_15102_ _06353_ _06362_ _06375_ VPWR VGND sg13g2_and2_1
XFILLER_6_844 VPWR VGND sg13g2_decap_4
X_12314_ _03694_ _03686_ _03693_ VPWR VGND sg13g2_nand2_1
X_16082_ _07323_ _07290_ _07322_ VPWR VGND sg13g2_xnor2_1
X_13294_ VGND VPWR _04639_ net752 net750 sg13g2_or2_1
XFILLER_138_1008 VPWR VGND sg13g2_fill_1
XFILLER_114_219 VPWR VGND sg13g2_decap_8
X_19910_ _10951_ net639 net157 VPWR VGND sg13g2_nand2_1
X_15033_ VGND VPWR net495 _06307_ _00160_ _06308_ sg13g2_a21oi_1
X_12245_ _03627_ _03598_ _03625_ VPWR VGND sg13g2_nand2_1
XFILLER_123_720 VPWR VGND sg13g2_fill_2
XFILLER_135_580 VPWR VGND sg13g2_decap_8
XFILLER_5_387 VPWR VGND sg13g2_fill_2
XFILLER_107_293 VPWR VGND sg13g2_decap_8
XFILLER_122_230 VPWR VGND sg13g2_fill_1
X_19841_ _10895_ _10842_ _10844_ VPWR VGND sg13g2_xnor2_1
X_12176_ net959 u_spi_slave.rx_shift\[6\] _00012_ VPWR VGND sg13g2_nor2b_1
XFILLER_95_114 VPWR VGND sg13g2_fill_1
XFILLER_3_56 VPWR VGND sg13g2_decap_8
X_19772_ _10836_ u_LMS.w\[4\]\[20\] net65 VPWR VGND sg13g2_nand2_1
X_16984_ _08140_ _08138_ _08139_ VPWR VGND sg13g2_nand2b_1
XFILLER_114_1041 VPWR VGND sg13g2_fill_1
X_18723_ _09790_ VPWR _09810_ VGND _09787_ _09791_ sg13g2_o21ai_1
X_15935_ _07180_ _07165_ _07178_ VPWR VGND sg13g2_xnor2_1
XFILLER_77_873 VPWR VGND sg13g2_decap_4
XFILLER_114_1063 VPWR VGND sg13g2_decap_8
XFILLER_37_726 VPWR VGND sg13g2_fill_1
X_18654_ net365 VPWR _09746_ VGND u_LMS.w\[2\]\[7\] net381 sg13g2_o21ai_1
X_15866_ _07085_ _07113_ _07114_ VPWR VGND sg13g2_nor2b_1
XFILLER_91_331 VPWR VGND sg13g2_fill_1
X_17605_ _08734_ VPWR _08738_ VGND _08735_ _08737_ sg13g2_o21ai_1
X_14817_ _06104_ u_FIR.sum\[4\]\[11\] net407 VPWR VGND sg13g2_xnor2_1
XFILLER_36_258 VPWR VGND sg13g2_decap_8
X_18585_ _09691_ net33 net37 _09692_ VPWR VGND sg13g2_a21o_1
XFILLER_36_269 VPWR VGND sg13g2_fill_2
X_15797_ _07016_ _07046_ _07047_ VPWR VGND sg13g2_nor2_1
XFILLER_51_206 VPWR VGND sg13g2_fill_1
XFILLER_51_217 VPWR VGND sg13g2_decap_8
X_17536_ _08650_ _08667_ _08648_ _08669_ VPWR VGND sg13g2_nand3_1
XFILLER_83_80 VPWR VGND sg13g2_fill_2
X_14748_ _06037_ _06028_ _06035_ VPWR VGND sg13g2_xnor2_1
XFILLER_33_943 VPWR VGND sg13g2_decap_8
X_23701__1521 VPWR VGND net1520 sg13g2_tiehi
X_17467_ _08600_ net80 _08598_ VPWR VGND sg13g2_nand2b_1
X_23416__1112 VPWR VGND net1111 sg13g2_tiehi
X_14679_ _05948_ VPWR _05969_ VGND _05949_ _05957_ sg13g2_o21ai_1
XFILLER_32_486 VPWR VGND sg13g2_decap_8
X_19206_ _10288_ net312 u_LMS.w\[3\]\[17\] coeff_force_packed\[26\] net573 VPWR VGND
+ sg13g2_a22oi_1
X_16418_ _07648_ u_FIR.sum\[7\]\[16\] net398 VPWR VGND sg13g2_nand2_1
XFILLER_32_497 VPWR VGND sg13g2_fill_1
XFILLER_73_1080 VPWR VGND sg13g2_decap_4
X_17398_ _08483_ VPWR _08543_ VGND _08482_ _08485_ sg13g2_o21ai_1
X_19137_ _10224_ _03329_ _10187_ VPWR VGND sg13g2_nand2_1
XFILLER_9_660 VPWR VGND sg13g2_decap_8
X_16349_ _07568_ VPWR _07582_ VGND net278 _07566_ sg13g2_o21ai_1
XFILLER_9_671 VPWR VGND sg13g2_fill_1
XFILLER_121_1056 VPWR VGND sg13g2_decap_8
XFILLER_145_333 VPWR VGND sg13g2_decap_8
XFILLER_121_1067 VPWR VGND sg13g2_decap_4
XFILLER_66_0 VPWR VGND sg13g2_fill_1
XFILLER_118_569 VPWR VGND sg13g2_decap_8
X_19068_ VGND VPWR u_LMS.x_r\[3\]\[7\] net162 _10155_ _10154_ sg13g2_a21oi_1
XFILLER_8_192 VPWR VGND sg13g2_fill_2
X_18019_ _09140_ _09085_ _09141_ VPWR VGND sg13g2_xor2_1
XFILLER_126_580 VPWR VGND sg13g2_decap_8
XFILLER_99_431 VPWR VGND sg13g2_decap_8
XFILLER_114_742 VPWR VGND sg13g2_fill_1
X_21030_ _01668_ _01629_ _01631_ VPWR VGND sg13g2_xnor2_1
XFILLER_99_442 VPWR VGND sg13g2_fill_1
XFILLER_102_915 VPWR VGND sg13g2_decap_4
Xfanout105 net107 net105 VPWR VGND sg13g2_buf_1
Xfanout116 net117 net116 VPWR VGND sg13g2_buf_1
Xfanout127 _07972_ net127 VPWR VGND sg13g2_buf_1
Xfanout138 net140 net138 VPWR VGND sg13g2_buf_1
Xfanout149 net151 net149 VPWR VGND sg13g2_buf_1
XFILLER_86_125 VPWR VGND sg13g2_decap_8
XFILLER_86_169 VPWR VGND sg13g2_decap_8
X_22981_ net997 VGND VPWR _00043_ u_spi_slave.tx_shift\[11\] net1642 sg13g2_dfrbpq_1
XFILLER_110_970 VPWR VGND sg13g2_fill_2
XFILLER_83_832 VPWR VGND sg13g2_decap_4
X_21932_ _02525_ _02524_ _02526_ VPWR VGND sg13g2_xor2_1
XFILLER_67_383 VPWR VGND sg13g2_decap_8
XFILLER_28_759 VPWR VGND sg13g2_decap_8
XFILLER_103_46 VPWR VGND sg13g2_decap_8
XFILLER_103_57 VPWR VGND sg13g2_fill_2
X_21863_ _02455_ VPWR _02457_ VGND _02452_ _02454_ sg13g2_o21ai_1
XFILLER_63_28 VPWR VGND sg13g2_decap_8
XFILLER_24_910 VPWR VGND sg13g2_fill_2
X_23602_ net1030 VGND VPWR _00664_ coeff_force_packed\[42\] clknet_leaf_22_clkA sg13g2_dfrbpq_1
X_20814_ _01452_ _01453_ _01454_ VPWR VGND sg13g2_nor2_1
X_21794_ _02367_ VPWR _02388_ VGND _02364_ _02368_ sg13g2_o21ai_1
XFILLER_24_954 VPWR VGND sg13g2_decap_8
X_23533_ net993 VGND VPWR _00595_ u_debug_unit.sw_reset\[3\] clknet_leaf_59_clkA sg13g2_dfrbpq_1
XFILLER_11_604 VPWR VGND sg13g2_fill_2
X_20745_ _01385_ _01383_ _01384_ VPWR VGND sg13g2_xnor2_1
XFILLER_144_7 VPWR VGND sg13g2_decap_8
XFILLER_23_475 VPWR VGND sg13g2_fill_2
XFILLER_51_795 VPWR VGND sg13g2_decap_4
X_20676_ _01316_ _01312_ _01315_ VPWR VGND sg13g2_nand2_1
X_23464_ net1550 VGND VPWR _00526_ u_LMS.x_r\[4\]\[7\] clknet_leaf_0_clkA sg13g2_dfrbpq_1
XFILLER_137_801 VPWR VGND sg13g2_decap_8
XFILLER_137_812 VPWR VGND sg13g2_fill_1
XFILLER_7_619 VPWR VGND sg13g2_fill_2
XFILLER_10_147 VPWR VGND sg13g2_decap_4
XFILLER_13_1115 VPWR VGND sg13g2_decap_4
XFILLER_12_21 VPWR VGND sg13g2_decap_8
X_22415_ net962 VPWR _02957_ VGND net446 net668 sg13g2_o21ai_1
XFILLER_136_322 VPWR VGND sg13g2_decap_8
X_23395_ net1174 VGND VPWR _00457_ u_LMS.w\[7\]\[5\] clknet_leaf_9_clkA sg13g2_dfrbpq_1
XFILLER_100_1107 VPWR VGND sg13g2_decap_8
XFILLER_128_21 VPWR VGND sg13g2_decap_8
XFILLER_100_1118 VPWR VGND sg13g2_fill_2
X_22346_ VGND VPWR net48 _02919_ _02920_ net6 sg13g2_a21oi_1
XFILLER_128_54 VPWR VGND sg13g2_decap_4
XFILLER_12_98 VPWR VGND sg13g2_decap_8
XFILLER_3_814 VPWR VGND sg13g2_decap_8
X_22277_ _02847_ VPWR _02866_ VGND _02824_ _02865_ sg13g2_o21ai_1
XFILLER_88_47 VPWR VGND sg13g2_fill_2
X_12030_ _03447_ net293 sys_enable_bus\[7\] net303 u_debug_unit.force_w5\[7\] VPWR
+ VGND sg13g2_a22oi_1
XFILLER_104_230 VPWR VGND sg13g2_fill_1
X_21228_ _01844_ _01755_ _01845_ VPWR VGND sg13g2_xor2_1
XFILLER_132_572 VPWR VGND sg13g2_decap_8
XFILLER_78_626 VPWR VGND sg13g2_fill_2
XFILLER_2_379 VPWR VGND sg13g2_fill_2
XFILLER_132_583 VPWR VGND sg13g2_fill_2
XFILLER_144_42 VPWR VGND sg13g2_decap_8
XFILLER_120_734 VPWR VGND sg13g2_decap_4
XFILLER_132_594 VPWR VGND sg13g2_fill_1
XFILLER_137_1085 VPWR VGND sg13g2_decap_8
X_21159_ _01768_ _01775_ _01776_ VPWR VGND sg13g2_and2_1
XFILLER_77_114 VPWR VGND sg13g2_decap_8
Xfanout650 u_LMS.x_r\[4\]\[7\] net650 VPWR VGND sg13g2_buf_1
Xfanout661 u_LMS.x_r\[4\]\[1\] net661 VPWR VGND sg13g2_buf_1
Xfanout672 u_LMS.x_r\[3\]\[3\] net672 VPWR VGND sg13g2_buf_1
Xfanout683 u_LMS.x_r\[2\]\[4\] net683 VPWR VGND sg13g2_buf_1
X_13981_ _05297_ net772 net915 VPWR VGND sg13g2_nand2_1
Xfanout694 u_LMS.x_r\[1\]\[7\] net694 VPWR VGND sg13g2_buf_1
X_15720_ _06931_ _06933_ _06971_ _06972_ VPWR VGND sg13g2_nor3_1
XFILLER_20_1108 VPWR VGND sg13g2_decap_8
X_12932_ _04255_ _04290_ _04291_ VPWR VGND sg13g2_nor2_1
XFILLER_20_1119 VPWR VGND sg13g2_fill_1
X_15651_ net887 _06903_ net793 _06904_ VPWR VGND sg13g2_nand3_1
X_12863_ _04224_ _04223_ _04219_ VPWR VGND sg13g2_nand2b_1
X_23118__1624 VPWR VGND net1623 sg13g2_tiehi
XFILLER_73_375 VPWR VGND sg13g2_decap_8
XFILLER_33_217 VPWR VGND sg13g2_decap_8
XFILLER_2_1073 VPWR VGND sg13g2_decap_8
X_14602_ _05894_ _05893_ _05855_ VPWR VGND sg13g2_nand2b_1
XFILLER_73_386 VPWR VGND sg13g2_fill_1
XFILLER_57_1020 VPWR VGND sg13g2_fill_1
X_18370_ net691 net185 net689 _09480_ VPWR VGND net222 sg13g2_nand4_1
X_11814_ VPWR _03235_ net632 VGND sg13g2_inv_1
XFILLER_73_397 VPWR VGND sg13g2_decap_8
X_15582_ _06835_ _06828_ _06837_ VPWR VGND sg13g2_xor2_1
XFILLER_15_943 VPWR VGND sg13g2_fill_2
X_12794_ _04157_ _04153_ _04156_ VPWR VGND sg13g2_xnor2_1
XFILLER_61_559 VPWR VGND sg13g2_fill_2
X_17321_ _08477_ u_LMS.w\[0\]\[21\] net73 VPWR VGND sg13g2_nand2_1
XFILLER_144_1012 VPWR VGND sg13g2_decap_8
X_14533_ _05827_ net781 net874 VPWR VGND sg13g2_nand2_1
XFILLER_42_762 VPWR VGND sg13g2_fill_1
XFILLER_18_1059 VPWR VGND sg13g2_fill_2
X_17252_ _08408_ _08373_ _08374_ VPWR VGND sg13g2_xnor2_1
X_14464_ net1042 VPWR _05764_ VGND net551 u_FIR.sum\[4\]\[17\] sg13g2_o21ai_1
XFILLER_144_1089 VPWR VGND sg13g2_decap_8
X_16203_ VGND VPWR net488 _07439_ _00198_ _07440_ sg13g2_a21oi_1
X_13415_ _04757_ _04740_ _04755_ VPWR VGND sg13g2_xnor2_1
X_17183_ _08339_ _08329_ _08338_ VPWR VGND sg13g2_nand2_1
X_14395_ _05698_ u_FIR.sum\[3\]\[14\] net410 VPWR VGND sg13g2_nand2_1
X_16134_ _07373_ _07372_ _07368_ VPWR VGND sg13g2_nand2b_1
X_13346_ _04690_ _04678_ _04689_ VPWR VGND sg13g2_xnor2_1
XFILLER_5_140 VPWR VGND sg13g2_decap_4
XFILLER_115_517 VPWR VGND sg13g2_fill_1
X_16065_ _07304_ _07297_ _07306_ VPWR VGND sg13g2_xor2_1
XFILLER_142_325 VPWR VGND sg13g2_fill_2
X_13277_ _04615_ _04622_ _04623_ VPWR VGND sg13g2_nor2b_1
XFILLER_108_591 VPWR VGND sg13g2_decap_8
XFILLER_142_347 VPWR VGND sg13g2_decap_8
X_15016_ _06290_ _06279_ _06292_ VPWR VGND sg13g2_xor2_1
X_12228_ _03611_ net734 net894 VPWR VGND sg13g2_nand2_1
XFILLER_68_103 VPWR VGND sg13g2_decap_4
X_19824_ _10832_ VPWR _10881_ VGND _03326_ _10830_ sg13g2_o21ai_1
XFILLER_69_637 VPWR VGND sg13g2_decap_8
X_12159_ _03568_ net298 coeff_force_packed\[0\] _03404_ u_debug_unit.mon_w7_sync\[0\]
+ VPWR VGND sg13g2_a22oi_1
XFILLER_96_434 VPWR VGND sg13g2_fill_2
XFILLER_25_1019 VPWR VGND sg13g2_decap_4
XFILLER_97_968 VPWR VGND sg13g2_fill_1
XFILLER_96_445 VPWR VGND sg13g2_fill_2
X_19755_ _10815_ VPWR _10819_ VGND _10422_ _10818_ sg13g2_o21ai_1
X_16967_ _08116_ VPWR _08123_ VGND _08078_ _08114_ sg13g2_o21ai_1
X_18706_ _09793_ _09787_ _09792_ VPWR VGND sg13g2_xnor2_1
XFILLER_49_383 VPWR VGND sg13g2_decap_4
X_15918_ net982 VPWR _07164_ VGND net510 u_FIR.sum\[7\]\[14\] sg13g2_o21ai_1
X_19686_ _03327_ _10749_ _10750_ VPWR VGND sg13g2_nor2_1
X_16898_ _08054_ _08053_ _08032_ VPWR VGND sg13g2_nand2b_1
XFILLER_76_180 VPWR VGND sg13g2_decap_4
X_18637_ VGND VPWR net57 _09732_ _09733_ net32 sg13g2_a21oi_1
X_15849_ _07097_ _07096_ _07090_ VPWR VGND sg13g2_nand2b_1
XFILLER_25_718 VPWR VGND sg13g2_fill_2
XFILLER_24_217 VPWR VGND sg13g2_fill_2
XFILLER_18_792 VPWR VGND sg13g2_fill_2
X_18568_ _09676_ _09677_ _09675_ _09678_ VPWR VGND sg13g2_nand3_1
X_17519_ _08642_ VPWR _08652_ VGND _08609_ _08643_ sg13g2_o21ai_1
X_18499_ _09609_ _09538_ _09539_ VPWR VGND sg13g2_xnor2_1
X_20530_ _01170_ _01169_ _01164_ VPWR VGND sg13g2_nand2b_1
XFILLER_32_294 VPWR VGND sg13g2_decap_4
X_20461_ _01113_ _01065_ _01112_ VPWR VGND sg13g2_xnor2_1
XFILLER_118_311 VPWR VGND sg13g2_decap_8
XFILLER_20_489 VPWR VGND sg13g2_decap_8
X_22200_ _02780_ _02793_ _02794_ VPWR VGND sg13g2_nor2_1
X_23180_ net1526 VGND VPWR _00242_ u_FIR.w\[3\]\[4\] clknet_leaf_55_clkA sg13g2_dfrbpq_1
X_20392_ _01052_ VPWR _01055_ VGND _03318_ net76 sg13g2_o21ai_1
XFILLER_145_141 VPWR VGND sg13g2_decap_4
XFILLER_134_837 VPWR VGND sg13g2_decap_4
X_22131_ _02723_ _02724_ _02725_ VPWR VGND sg13g2_and2_1
XFILLER_145_163 VPWR VGND sg13g2_decap_8
XFILLER_145_174 VPWR VGND sg13g2_fill_1
XFILLER_133_325 VPWR VGND sg13g2_decap_4
X_22062_ _02656_ net599 net205 VPWR VGND sg13g2_nand2_1
XFILLER_0_806 VPWR VGND sg13g2_decap_8
XFILLER_0_817 VPWR VGND sg13g2_fill_1
XFILLER_87_401 VPWR VGND sg13g2_fill_1
X_21013_ _01646_ _01648_ _01651_ _01652_ _01653_ VPWR VGND sg13g2_nor4_1
XFILLER_88_935 VPWR VGND sg13g2_fill_2
XFILLER_142_881 VPWR VGND sg13g2_decap_4
XFILLER_0_839 VPWR VGND sg13g2_fill_1
XFILLER_102_723 VPWR VGND sg13g2_fill_2
XFILLER_88_957 VPWR VGND sg13g2_fill_2
XFILLER_88_968 VPWR VGND sg13g2_decap_8
XFILLER_43_1119 VPWR VGND sg13g2_fill_1
XFILLER_88_979 VPWR VGND sg13g2_fill_2
XFILLER_59_158 VPWR VGND sg13g2_fill_2
XFILLER_68_692 VPWR VGND sg13g2_fill_1
X_22964_ u_spi_slave.rd_toggle _00795_ VPWR VGND sg13g2_buf_1
XFILLER_28_545 VPWR VGND sg13g2_decap_8
XFILLER_74_38 VPWR VGND sg13g2_decap_8
X_21915_ _02502_ VPWR _02509_ VGND _02468_ _02500_ sg13g2_o21ai_1
X_22895_ _03176_ net305 u_FIR.x\[4\] net306 u_s2p_input.reg_sh\[3\] VPWR VGND sg13g2_a22oi_1
XFILLER_28_589 VPWR VGND sg13g2_fill_2
XFILLER_15_217 VPWR VGND sg13g2_fill_1
XFILLER_128_1018 VPWR VGND sg13g2_decap_8
XFILLER_82_183 VPWR VGND sg13g2_decap_8
X_21846_ _02440_ _02437_ _02438_ VPWR VGND sg13g2_xnor2_1
XFILLER_82_194 VPWR VGND sg13g2_fill_1
XFILLER_71_857 VPWR VGND sg13g2_fill_2
XFILLER_71_879 VPWR VGND sg13g2_fill_1
XFILLER_11_401 VPWR VGND sg13g2_fill_1
X_21777_ _02363_ _02370_ _02371_ VPWR VGND sg13g2_and2_1
X_23114__1630 VPWR VGND net1629 sg13g2_tiehi
XFILLER_23_261 VPWR VGND sg13g2_decap_4
XFILLER_11_423 VPWR VGND sg13g2_decap_8
X_23516_ net1363 VGND VPWR _00578_ u_LMS.count\[19\] clknet_leaf_69_clkA sg13g2_dfrbpq_1
X_20728_ VPWR _01368_ _01367_ VGND sg13g2_inv_1
XFILLER_23_42 VPWR VGND sg13g2_decap_8
XFILLER_8_939 VPWR VGND sg13g2_fill_2
XFILLER_7_416 VPWR VGND sg13g2_decap_4
XFILLER_139_42 VPWR VGND sg13g2_decap_8
X_23447_ net1601 VGND VPWR _00509_ u_LMS.x_r\[2\]\[6\] clknet_leaf_0_clkA sg13g2_dfrbpq_1
XFILLER_104_1040 VPWR VGND sg13g2_decap_4
X_20659_ _01299_ _01296_ _01297_ VPWR VGND sg13g2_xnor2_1
XFILLER_104_1062 VPWR VGND sg13g2_decap_4
X_13200_ _04517_ _04547_ _04548_ VPWR VGND sg13g2_and2_1
XFILLER_137_653 VPWR VGND sg13g2_decap_8
X_14180_ _05489_ net769 net863 VPWR VGND sg13g2_nand2_1
X_23378_ net1225 VGND VPWR _00440_ u_LMS.w\[6\]\[11\] clknet_leaf_12_clkA sg13g2_dfrbpq_1
XFILLER_99_46 VPWR VGND sg13g2_fill_1
XFILLER_104_1095 VPWR VGND sg13g2_fill_2
X_13131_ _04480_ net748 net896 VPWR VGND sg13g2_nand2_1
X_22329_ _02792_ _02791_ _02907_ VPWR VGND sg13g2_xor2_1
XFILLER_87_1057 VPWR VGND sg13g2_fill_2
XFILLER_124_347 VPWR VGND sg13g2_decap_8
X_13062_ VGND VPWR _04382_ _04396_ _04413_ _04395_ sg13g2_a21oi_1
XFILLER_79_913 VPWR VGND sg13g2_decap_4
X_12013_ _03417_ net336 _03430_ VPWR VGND sg13g2_nor2_1
XFILLER_3_699 VPWR VGND sg13g2_decap_4
X_17870_ _08942_ _08935_ _09003_ VPWR VGND sg13g2_xor2_1
XFILLER_79_968 VPWR VGND sg13g2_decap_4
X_16821_ _07977_ net709 net165 VPWR VGND sg13g2_nand2_1
XFILLER_38_309 VPWR VGND sg13g2_fill_2
XFILLER_93_404 VPWR VGND sg13g2_fill_1
XFILLER_24_1030 VPWR VGND sg13g2_fill_2
XFILLER_120_586 VPWR VGND sg13g2_decap_8
Xfanout480 spi_wdata\[3\] net480 VPWR VGND sg13g2_buf_1
Xclkbuf_leaf_51_clkA clknet_4_4_0_clkA clknet_leaf_51_clkA VPWR VGND sg13g2_buf_8
XFILLER_63_1090 VPWR VGND sg13g2_fill_2
XFILLER_120_597 VPWR VGND sg13g2_fill_1
Xfanout491 net492 net491 VPWR VGND sg13g2_buf_1
XFILLER_48_83 VPWR VGND sg13g2_fill_1
XFILLER_47_821 VPWR VGND sg13g2_decap_8
XFILLER_24_1052 VPWR VGND sg13g2_decap_8
X_19540_ _10604_ _10600_ _10603_ VPWR VGND sg13g2_nand2_1
X_16752_ VPWR _07908_ _07907_ VGND sg13g2_inv_1
XFILLER_47_832 VPWR VGND sg13g2_fill_1
X_13964_ _05279_ VPWR _05282_ VGND _05267_ _05276_ sg13g2_o21ai_1
X_15703_ _06948_ _06954_ _06955_ VPWR VGND sg13g2_nor2b_1
X_12915_ _04275_ _04250_ _04274_ VPWR VGND sg13g2_xnor2_1
XFILLER_0_57 VPWR VGND sg13g2_decap_8
X_19471_ net215 _10534_ net653 _10535_ VPWR VGND sg13g2_nand3_1
X_16683_ u_LMS.w\[7\]\[24\] _07852_ _07853_ VPWR VGND sg13g2_nor2_1
X_13895_ _05217_ _05216_ _05195_ VPWR VGND sg13g2_nand2b_1
XFILLER_94_1017 VPWR VGND sg13g2_fill_1
XFILLER_46_386 VPWR VGND sg13g2_decap_8
X_18422_ _09532_ net691 net263 VPWR VGND sg13g2_nand2_1
X_15634_ _06886_ _06860_ _06888_ VPWR VGND sg13g2_xor2_1
XFILLER_46_397 VPWR VGND sg13g2_fill_1
X_12846_ net1052 VPWR _04208_ VGND net559 u_FIR.sum\[1\]\[9\] sg13g2_o21ai_1
XFILLER_15_740 VPWR VGND sg13g2_decap_8
X_18353_ _03265_ _03266_ net178 net163 _09463_ VPWR VGND sg13g2_nor4_1
X_15565_ net974 VPWR _06821_ VGND net492 u_FIR.sum\[7\]\[4\] sg13g2_o21ai_1
X_12777_ _04138_ _04139_ _04140_ VPWR VGND sg13g2_and2_1
X_17304_ _08460_ _03356_ _08413_ VPWR VGND sg13g2_nand2_1
X_14516_ _05811_ net779 net903 VPWR VGND sg13g2_nand2_1
X_18284_ _09394_ net685 net222 VPWR VGND sg13g2_nand2_1
X_15496_ _06755_ _06753_ _06754_ VPWR VGND sg13g2_xnor2_1
XFILLER_9_77 VPWR VGND sg13g2_decap_8
X_17235_ _08391_ _08385_ _08390_ VPWR VGND sg13g2_xnor2_1
X_14447_ VGND VPWR _05746_ _05747_ _05748_ net430 sg13g2_a21oi_1
XFILLER_128_631 VPWR VGND sg13g2_fill_2
XFILLER_11_990 VPWR VGND sg13g2_fill_1
XFILLER_31_1034 VPWR VGND sg13g2_fill_1
XFILLER_127_130 VPWR VGND sg13g2_decap_8
X_17166_ _08309_ _08321_ _08322_ VPWR VGND sg13g2_nor2_1
X_14378_ _05682_ _05681_ _05650_ VPWR VGND sg13g2_nand2b_1
XFILLER_31_1067 VPWR VGND sg13g2_decap_8
X_16117_ _07357_ _07327_ _07356_ VPWR VGND sg13g2_xnor2_1
X_13329_ VGND VPWR net561 _04672_ _00091_ _04673_ sg13g2_a21oi_1
X_17097_ _08179_ _08173_ _08253_ VPWR VGND sg13g2_xor2_1
XFILLER_127_196 VPWR VGND sg13g2_decap_8
XFILLER_6_493 VPWR VGND sg13g2_fill_2
X_16048_ _07289_ _07287_ _07288_ _07270_ _07238_ VPWR VGND sg13g2_a22oi_1
XFILLER_142_155 VPWR VGND sg13g2_decap_8
XFILLER_124_870 VPWR VGND sg13g2_decap_8
XFILLER_97_710 VPWR VGND sg13g2_decap_8
XFILLER_69_412 VPWR VGND sg13g2_decap_8
X_19807_ _10868_ net319 u_LMS.w\[4\]\[15\] coeff_force_packed\[31\] net576 VPWR VGND
+ sg13g2_a22oi_1
XFILLER_85_916 VPWR VGND sg13g2_decap_8
XFILLER_29_0 VPWR VGND sg13g2_decap_8
XFILLER_97_787 VPWR VGND sg13g2_fill_1
XFILLER_84_404 VPWR VGND sg13g2_decap_8
XFILLER_57_618 VPWR VGND sg13g2_decap_4
X_23182__1524 VPWR VGND net1523 sg13g2_tiehi
X_23210__1475 VPWR VGND net1474 sg13g2_tiehi
X_17999_ _09125_ _09070_ _09124_ VPWR VGND sg13g2_xnor2_1
XFILLER_85_949 VPWR VGND sg13g2_decap_8
X_19738_ _10802_ u_LMS.w\[4\]\[13\] _10751_ VPWR VGND sg13g2_xnor2_1
XFILLER_65_673 VPWR VGND sg13g2_decap_4
XFILLER_53_813 VPWR VGND sg13g2_decap_8
X_19669_ _10730_ _10732_ _10733_ VPWR VGND sg13g2_and2_1
XFILLER_53_824 VPWR VGND sg13g2_fill_1
XFILLER_37_375 VPWR VGND sg13g2_fill_2
XFILLER_53_835 VPWR VGND sg13g2_decap_8
X_21700_ _02304_ net395 _02251_ VPWR VGND sg13g2_nand2_1
X_22680_ coeff_force_packed\[48\] net474 _03067_ _00670_ VPWR VGND sg13g2_mux2_1
XFILLER_52_334 VPWR VGND sg13g2_fill_2
X_21631_ _02246_ _02247_ _02245_ _02248_ VPWR VGND sg13g2_nand3_1
XFILLER_100_47 VPWR VGND sg13g2_fill_2
XFILLER_127_1062 VPWR VGND sg13g2_fill_2
X_21562_ _03299_ _02178_ _02179_ VPWR VGND sg13g2_nor2_1
X_23301_ net1311 VGND VPWR _00363_ u_LMS.w\[3\]\[3\] clknet_leaf_63_clkA sg13g2_dfrbpq_1
X_20513_ _01150_ _01152_ _01153_ VPWR VGND sg13g2_nor2_1
X_21493_ VPWR _02110_ _02109_ VGND sg13g2_inv_1
XFILLER_107_804 VPWR VGND sg13g2_decap_4
X_20444_ VGND VPWR _01098_ _01099_ _00402_ net951 sg13g2_a21oi_1
X_23232_ net1434 VGND VPWR _00294_ u_LMS.w\[0\]\[3\] clknet_leaf_14_clkA sg13g2_dfrbpq_1
XFILLER_118_185 VPWR VGND sg13g2_decap_8
X_20375_ _01038_ _01037_ _00981_ VPWR VGND sg13g2_nand2b_1
X_23163_ net1555 VGND VPWR _00225_ u_FIR.w\[1\]\[1\] clknet_leaf_55_clkA sg13g2_dfrbpq_1
X_22114_ _02600_ _02578_ _02599_ _02708_ VPWR VGND sg13g2_a21o_1
XFILLER_69_49 VPWR VGND sg13g2_decap_8
X_23094_ net1076 VGND VPWR _00156_ u_FIR.sum\[5\]\[18\] clknet_leaf_45_clkA sg13g2_dfrbpq_1
XFILLER_122_829 VPWR VGND sg13g2_fill_2
X_22045_ _02638_ VPWR _02639_ VGND _02610_ _02636_ sg13g2_o21ai_1
XFILLER_114_380 VPWR VGND sg13g2_decap_8
XFILLER_102_531 VPWR VGND sg13g2_fill_2
XFILLER_87_220 VPWR VGND sg13g2_decap_8
XFILLER_114_391 VPWR VGND sg13g2_fill_1
XFILLER_87_253 VPWR VGND sg13g2_fill_1
XFILLER_75_404 VPWR VGND sg13g2_decap_8
XFILLER_102_575 VPWR VGND sg13g2_fill_1
XFILLER_102_597 VPWR VGND sg13g2_fill_2
XFILLER_75_448 VPWR VGND sg13g2_decap_8
XFILLER_18_42 VPWR VGND sg13g2_decap_8
XFILLER_141_21 VPWR VGND sg13g2_decap_8
X_23014__1197 VPWR VGND net1196 sg13g2_tiehi
X_22947_ net484 u_spi_slave.rx_shift\[0\] _03575_ _00804_ VPWR VGND sg13g2_mux2_1
XFILLER_44_824 VPWR VGND sg13g2_decap_8
XFILLER_43_301 VPWR VGND sg13g2_fill_2
XFILLER_29_898 VPWR VGND sg13g2_decap_8
XFILLER_43_312 VPWR VGND sg13g2_fill_1
X_12700_ VGND VPWR _04065_ _04064_ _04025_ sg13g2_or2_1
XFILLER_16_537 VPWR VGND sg13g2_fill_2
XFILLER_44_857 VPWR VGND sg13g2_decap_4
X_13680_ net877 _05007_ net758 _05008_ VPWR VGND sg13g2_nand3_1
X_22878_ u_p2s_output.reg_cnt\[1\] _03164_ _03167_ VPWR VGND sg13g2_and2_1
XFILLER_141_98 VPWR VGND sg13g2_decap_8
XFILLER_44_879 VPWR VGND sg13g2_decap_8
XFILLER_71_676 VPWR VGND sg13g2_decap_8
XFILLER_43_367 VPWR VGND sg13g2_decap_8
X_12631_ _03998_ _03992_ _03996_ VPWR VGND sg13g2_xnor2_1
X_21829_ _02403_ _02401_ _02420_ _02423_ VPWR VGND sg13g2_a21o_1
XFILLER_70_175 VPWR VGND sg13g2_fill_1
XFILLER_54_1023 VPWR VGND sg13g2_fill_1
XFILLER_12_721 VPWR VGND sg13g2_decap_8
X_15350_ VPWR _06617_ _06616_ VGND sg13g2_inv_1
XFILLER_93_1094 VPWR VGND sg13g2_fill_1
X_12562_ _03921_ _03861_ _03934_ VPWR VGND sg13g2_xor2_1
XFILLER_54_1056 VPWR VGND sg13g2_decap_8
XFILLER_12_765 VPWR VGND sg13g2_decap_8
XFILLER_11_242 VPWR VGND sg13g2_decap_8
XFILLER_133_0 VPWR VGND sg13g2_decap_8
X_14301_ _05607_ u_FIR.w\[4\]\[6\] net849 VPWR VGND sg13g2_nand2b_1
XFILLER_15_1029 VPWR VGND sg13g2_fill_1
XFILLER_8_725 VPWR VGND sg13g2_decap_8
X_15281_ _06549_ net259 _06550_ VPWR VGND sg13g2_xor2_1
XFILLER_12_798 VPWR VGND sg13g2_decap_8
X_12493_ net837 _03867_ net727 _03868_ VPWR VGND sg13g2_nand3_1
XFILLER_89_1108 VPWR VGND sg13g2_decap_8
XFILLER_89_1119 VPWR VGND sg13g2_fill_1
X_17020_ VGND VPWR _08176_ _08175_ _08174_ sg13g2_or2_1
X_14232_ VGND VPWR net832 _05538_ _05540_ _05537_ sg13g2_a21oi_1
XFILLER_7_268 VPWR VGND sg13g2_decap_8
XFILLER_109_152 VPWR VGND sg13g2_fill_1
XFILLER_137_483 VPWR VGND sg13g2_decap_8
X_14163_ _05473_ _05468_ _05471_ VPWR VGND sg13g2_xnor2_1
XFILLER_113_807 VPWR VGND sg13g2_decap_8
X_13114_ _04464_ _04463_ _04425_ VPWR VGND sg13g2_nand2b_1
XFILLER_98_507 VPWR VGND sg13g2_fill_2